* # FILE NAME: /HOME/ECEGRID/A/559MG3/CADENCE/SIMULATION/CMOS_NAND_180NM/       
* HSPICES/EXTRACTED/NETLIST/CMOS_NAND_180NM.C.RAW
* NETLIST OUTPUT FOR HSPICES.
* GENERATED ON OCT 31 15:04:53 2014   
* FILE NAME: HW1_CMOS_NAND_180NM_EXTRACTED.S.
* SUBCIRCUIT FOR CELL: CMOS_NAND_180NM.
* GENERATED FOR: HSPICES.
* GENERATED ON OCT 31 15:04:53 2014.   
