.option ingold=2 artist=2 psf=2 probe=0  
* # FILE NAME: /HOME/ECEGRID/A/559MG3/CADENCE/SIMULATION/XOR21_STATICCMOS/      
* HSPICES/EXTRACTED/NETLIST/XOR21_STATICCMOS.C.RAW
* NETLIST OUTPUT FOR HSPICES.
* GENERATED ON NOV 26 13:17:07 2014   
* FILE NAME: PROJ_LIB_XOR21_STATICCMOS_EXTRACTED.S.
* SUBCIRCUIT FOR CELL: XOR21_STATICCMOS.
* GENERATED FOR: HSPICES.
* GENERATED ON NOV 26 13:17:07 2014.   
.OP
.save
