* # FILE NAME: /HOME/ECEGRID/A/559MG3/CADENCE/SIMULATION/FF_POSITIVE_EDGE/      
* HSPICES/EXTRACTED/NETLIST/FF_POSITIVE_EDGE.C.RAW
* NETLIST OUTPUT FOR HSPICES.
* GENERATED ON NOV 25 23:04:49 2014   
* FILE NAME: PROJ_LIB_FF_POSITIVE_EDGE_EXTRACTED.S.
* SUBCIRCUIT FOR CELL: FF_POSITIVE_EDGE.
* GENERATED FOR: HSPICES.
* GENERATED ON NOV 25 23:04:49 2014.   
