* # FILE NAME: /HOME/ECEGRID/A/559MG3/CADENCE/SIMULATION/CMOS_NOR_180NM/        
* HSPICES/SCHEMATIC/NETLIST/CMOS_NOR_180NM.C.RAW
* NETLIST OUTPUT FOR HSPICES.
* GENERATED ON OCT 31 14:54:14 2014   
* GLOBAL NET DEFINITIONS
