* # FILE NAME: /HOME/ECEGRID/A/559MG3/CADENCE/SIMULATION/CMOS_NOR_180NM/        
* HSPICES/EXTRACTED/NETLIST/CMOS_NOR_180NM.C.RAW
* NETLIST OUTPUT FOR HSPICES.
* GENERATED ON OCT 25 23:56:24 2014   
* FILE NAME: HW1_CMOS_NOR_180NM_EXTRACTED.S.
* SUBCIRCUIT FOR CELL: CMOS_NOR_180NM.
* GENERATED FOR: HSPICES.
* GENERATED ON OCT 25 23:56:25 2014.   
