* # FILE NAME: /HOME/ECEGRID/A/559MG3/CADENCE/SIMULATION/PARTIALPRODUCT64/      
* HSPICES/SCHEMATIC/NETLIST/PARTIALPRODUCT64.C.RAW
* NETLIST OUTPUT FOR HSPICES.
* GENERATED ON DEC 5 18:39:55 2014   
* FILE NAME: PROJ_LIB_PARTIALPRODUCT64_SCHEMATIC.S.
* SUBCIRCUIT FOR CELL: PARTIALPRODUCT64.
* GENERATED FOR: HSPICES.
* GENERATED ON DEC  5 18:39:56 2014.   
