* # FILE NAME: /HOME/ECEGRID/A/559MG3/CADENCE/SIMULATION/PARTIALPRODUCT64/      
* HSPICES/EXTRACTED/NETLIST/PARTIALPRODUCT64.C.RAW
* NETLIST OUTPUT FOR HSPICES.
* GENERATED ON DEC 5 21:58:22 2014
   
* FILE NAME: PROJ_LIB_PARTIALPRODUCT64_EXTRACTED.S.
* SUBCIRCUIT FOR CELL: PARTIALPRODUCT64.
* GENERATED FOR: HSPICES.
* GENERATED ON DEC  5 21:58:22 2014.
   
C1501 GD 781  91.1411999999998E-18 M=1.0 
C1502 GD 780  76.212899999999E-18 M=1.0 
C1503 GD 692  69.9273000000004E-18 M=1.0 
C1504 GD 691  139.854599999999E-18 M=1.0 
C1505 GD 591  103.7124E-18 M=1.0 
C1506 GD 560  73.0701E-18 M=1.0 
C1507 GD 543  91.1412000000003E-18 M=1.0 
C1508 GD 533  370.0647E-18 M=1.0 
C1509 GD 511  31.82085E-18 M=1.0 
C1510 GD 467  29.8566E-18 M=1.0 
C1511 GD 466  23.571E-18 M=1.0 
C1512 GD 444  69.9273000000001E-18 M=1.0 
C1513 GD 418  70.713E-18 M=1.0 
C1514 GD 417  76.2128999999992E-18 M=1.0 
C1515 GD 348  76.2129E-18 M=1.0 
C1516 GD 347  70.713E-18 M=1.0 
C1517 GD 329  282.852000000001E-18 M=1.0 
C1518 GD 324  209.781900000001E-18 M=1.0 
C1519 GD 322  139.8546E-18 M=1.0 
C1520 GD 316  254.5668E-18 M=1.0 
C1521 GD 289  69.9273E-18 M=1.0 
C1522 GD 279  209.781900000001E-18 M=1.0 
C1523 GD 277  139.8546E-18 M=1.0 
C1524 GD 275  69.9273E-18 M=1.0 
C1525 GD 273  254.5668E-18 M=1.0 
C1526 GD 272  209.7819E-18 M=1.0 
C1527 GD 271  139.8546E-18 M=1.0 
C1528 GD 269  69.9273000000003E-18 M=1.0 
C1529 GD 265  139.8546E-18 M=1.0 
C1530 GD 263  69.9272999999999E-18 M=1.0 
C1531 GD 261  282.852E-18 M=1.0 
C1532 GD 259  139.8546E-18 M=1.0 
C1533 GD 257  69.9273000000005E-18 M=1.0 
C1534 GD 253  139.854600000001E-18 M=1.0 
C1535 GD 251  69.9273000000001E-18 M=1.0 
C1536 GD 247  282.852000000001E-18 M=1.0 
C1537 GD 240  139.854600000004E-18 M=1.0 
C1538 GD 238  69.9273000000016E-18 M=1.0 
C1539 GD 234  69.9273E-18 M=1.0 
C1540 GD 233  69.9273E-18 M=1.0 
C1541 GD 232  139.8546E-18 M=1.0 
C1542 GD 230  69.9273E-18 M=1.0 
C1543 GD 228  254.566800000001E-18 M=1.0 
C1544 GD 226  139.8546E-18 M=1.0 
C1545 GD 224  69.9273000000003E-18 M=1.0 
C1546 GD 221  282.852E-18 M=1.0 
C1547 GD 220  139.8546E-18 M=1.0 
C1548 GD 218  69.9272999999999E-18 M=1.0 
C1549 GD 216  254.5668E-18 M=1.0 
C1550 GD 215  209.7819E-18 M=1.0 
C1551 GD 214  139.854600000001E-18 M=1.0 
C1552 GD 212  69.9273000000001E-18 M=1.0 
C1553 GD 210  254.566800000002E-18 M=1.0 
C1554 GD 209  209.781899999999E-18 M=1.0 
C1555 GD 208  139.8546E-18 M=1.0 
C1556 GD 206  69.9273000000005E-18 M=1.0 
C1557 GD 203  282.852E-18 M=1.0 
C1558 GD 200  139.8546E-18 M=1.0 
C1559 GD 199  139.8546E-18 M=1.0 
C1560 GD 191  254.5668E-18 M=1.0 
C1561 GD 190  282.851999999999E-18 M=1.0 
C1562 GD 187  209.7819E-18 M=1.0 
C1563 GD 185  209.781899999998E-18 M=1.0 
C1564 GD 180  254.566800000002E-18 M=1.0 
C1565 GD 174  209.781899999999E-18 M=1.0 
C1566 GD 173  209.7819E-18 M=1.0 
C1567 GD 166  282.851999999999E-18 M=1.0 
C1568 GD 147  254.566800000001E-18 M=1.0 
C1569 GD 145  254.5668E-18 M=1.0 
C1570 GD 144  254.566799999999E-18 M=1.0 
C1571 GD 137  209.781899999998E-18 M=1.0 
C1572 GD 135  209.781899999999E-18 M=1.0 
C1573 GD 134  209.7819E-18 M=1.0 
C1574 GD 133  209.781900000003E-18 M=1.0 
C1575 GD 113  209.7819E-18 M=1.0 
C1576 GD 112  209.781900000003E-18 M=1.0 
C1577 GD 103  254.5668E-18 M=1.0 
C1578 GD 37  282.851999999996E-18 M=1.0 
C1579 GD 25  254.5668E-18 M=1.0 
C1580 GD 6  254.566800000003E-18 M=1.0 
C1581 A6B4 GD  282.852E-18 M=1.0 
C1582 VD 691  26.7138000000001E-18 M=1.0 
C1583 VD 387  106.855200000001E-18 M=1.0 
C1584 VD 329  53.4276E-18 M=1.0 
C1585 VD 324  40.0706999999998E-18 M=1.0 
C1586 VD 316  81.7127999999999E-18 M=1.0 
C1587 VD 287  26.7138000000004E-18 M=1.0 
C1588 VD 277  26.7138000000001E-18 M=1.0 
C1589 VD 273  81.7128E-18 M=1.0 
C1590 VD 272  40.0706999999999E-18 M=1.0 
C1591 VD 271  26.7137999999999E-18 M=1.0 
C1592 VD 265  26.7138E-18 M=1.0 
C1593 VD 261  53.4275999999998E-18 M=1.0 
C1594 VD 259  26.7138000000001E-18 M=1.0 
C1595 VD 253  26.7137999999998E-18 M=1.0 
C1596 VD 247  53.4276000000001E-18 M=1.0 
C1597 VD 240  26.7138000000004E-18 M=1.0 
C1598 VD 228  81.7128E-18 M=1.0 
C1599 VD 221  53.4276E-18 M=1.0 
C1600 VD 216  81.7128000000001E-18 M=1.0 
C1601 VD 215  40.0707E-18 M=1.0 
C1602 VD 210  81.7128000000003E-18 M=1.0 
C1603 VD 209  40.0707E-18 M=1.0 
C1604 VD 203  53.4275999999999E-18 M=1.0 
C1605 VD 200  26.7138E-18 M=1.0 
C1606 VD 199  26.7138000000002E-18 M=1.0 
C1607 VD 190  53.4276E-18 M=1.0 
C1608 VD 185  40.0707E-18 M=1.0 
C1609 VD 174  40.0707E-18 M=1.0 
C1610 VD 166  53.4276000000004E-18 M=1.0 
C1611 VD 165  53.4276E-18 M=1.0 
C1612 VD 143  81.7128000000001E-18 M=1.0 
C1613 VD 135  40.0707E-18 M=1.0 
C1614 VD 134  40.0707000000003E-18 M=1.0 
C1615 VD 133  40.0706999999999E-18 M=1.0 
C1616 VD 113  40.0707E-18 M=1.0 
C1617 VD 7  81.7127999999998E-18 M=1.0 
C1618 VD 6  81.7128000000001E-18 M=1.0 
C1619 A7B3 GD  254.5668E-18 M=1.0 
C1620 A7B3 VD  81.7127999999998E-18 M=1.0 
C1621 779 780  171.7443E-18 M=1.0 
C1622 466 467  75.2328E-18 M=1.0 
C1623 417 418  171.7443E-18 M=1.0 
C1624 387 418  75.2328E-18 M=1.0 
C1625 347 369  75.2328E-18 M=1.0 
C1626 347 348  171.7443E-18 M=1.0 
C1627 GD 781  202.6413E-18 M=1.0 
C1628 GD 780  226.8738E-18 M=1.0 
C1629 GD 695  164.349E-18 M=1.0 
C1630 GD 692  189.5436E-18 M=1.0 
C1631 GD 634  164.349E-18 M=1.0 
C1632 GD 560  282.8808E-18 M=1.0 
C1633 GD 444  189.5436E-18 M=1.0 
C1634 GD 418  250.7832E-18 M=1.0 
C1635 GD 417  226.8738E-18 M=1.0 
C1636 GD 416  202.6413E-18 M=1.0 
C1637 GD 387  364.212E-18 M=1.0 
C1638 GD 348  226.8738E-18 M=1.0 
C1639 GD 324  239.9328E-18 M=1.0 
C1640 GD 301  189.5436E-18 M=1.0 
C1641 GD 285  189.543599999999E-18 M=1.0 
C1642 GD 283  236.745000000001E-18 M=1.0 
C1643 GD 279  239.9328E-18 M=1.0 
C1644 GD 277  214.7382E-18 M=1.0 
C1645 GD 276  44.0136E-18 M=1.0 
C1646 GD 275  189.5436E-18 M=1.0 
C1647 GD 274  44.0136E-18 M=1.0 
C1648 GD 273  164.349E-18 M=1.0 
C1649 GD 272  239.9328E-18 M=1.0 
C1650 GD 271  214.7382E-18 M=1.0 
C1651 GD 270  44.0136E-18 M=1.0 
C1652 GD 269  189.5436E-18 M=1.0 
C1653 GD 268  44.0136E-18 M=1.0 
C1654 GD 267  164.349E-18 M=1.0 
C1655 GD 265  214.7382E-18 M=1.0 
C1656 GD 264  44.0136E-18 M=1.0 
C1657 GD 263  189.5436E-18 M=1.0 
C1658 GD 262  44.0136E-18 M=1.0 
C1659 GD 259  214.7382E-18 M=1.0 
C1660 GD 258  44.0136E-18 M=1.0 
C1661 GD 257  189.5436E-18 M=1.0 
C1662 GD 256  44.0136E-18 M=1.0 
C1663 GD 255  164.349E-18 M=1.0 
C1664 GD 254  239.9328E-18 M=1.0 
C1665 GD 253  214.7382E-18 M=1.0 
C1666 GD 252  44.0136E-18 M=1.0 
C1667 GD 251  189.5436E-18 M=1.0 
C1668 GD 250  44.0136E-18 M=1.0 
C1669 GD 249  164.349E-18 M=1.0 
C1670 GD 247  236.745E-18 M=1.0 
C1671 GD 245  164.349E-18 M=1.0 
C1672 GD 244  164.349E-18 M=1.0 
C1673 GD 242  44.0136E-18 M=1.0 
C1674 GD 241  44.0135999999999E-18 M=1.0 
C1675 GD 240  214.738200000001E-18 M=1.0 
C1676 GD 239  44.0136E-18 M=1.0 
C1677 GD 238  189.543599999999E-18 M=1.0 
C1678 GD 237  44.0135999999999E-18 M=1.0 
C1679 GD 236  164.349000000001E-18 M=1.0 
C1680 GD 234  189.5436E-18 M=1.0 
C1681 GD 233  189.5436E-18 M=1.0 
C1682 GD 232  214.7382E-18 M=1.0 
C1683 GD 231  44.0136E-18 M=1.0 
C1684 GD 230  189.5436E-18 M=1.0 
C1685 GD 229  44.0136E-18 M=1.0 
C1686 GD 228  164.349E-18 M=1.0 
C1687 GD 226  214.7382E-18 M=1.0 
C1688 GD 225  44.0136E-18 M=1.0 
C1689 GD 224  189.5436E-18 M=1.0 
C1690 GD 223  44.0136E-18 M=1.0 
C1691 GD 221  236.745E-18 M=1.0 
C1692 GD 220  214.7382E-18 M=1.0 
C1693 GD 219  44.0136E-18 M=1.0 
C1694 GD 218  189.5436E-18 M=1.0 
C1695 GD 217  44.0136E-18 M=1.0 
C1696 GD 216  164.349E-18 M=1.0 
C1697 GD 215  239.9328E-18 M=1.0 
C1698 GD 214  214.7382E-18 M=1.0 
C1699 GD 213  44.0136E-18 M=1.0 
C1700 GD 212  189.5436E-18 M=1.0 
C1701 GD 211  44.0136E-18 M=1.0 
C1702 GD 210  164.349E-18 M=1.0 
C1703 GD 209  239.9328E-18 M=1.0 
C1704 GD 208  214.7382E-18 M=1.0 
C1705 GD 207  44.0136E-18 M=1.0 
C1706 GD 206  189.5436E-18 M=1.0 
C1707 GD 205  44.0136E-18 M=1.0 
C1708 GD 203  236.745E-18 M=1.0 
C1709 GD 201  44.0136E-18 M=1.0 
C1710 GD 200  214.7382E-18 M=1.0 
C1711 GD 199  214.7382E-18 M=1.0 
C1712 GD 190  236.745E-18 M=1.0 
C1713 GD 187  256.7178E-18 M=1.0 
C1714 GD 185  239.9328E-18 M=1.0 
C1715 GD 176  189.5436E-18 M=1.0 
C1716 GD 174  239.9328E-18 M=1.0 
C1717 GD 137  136.2294E-18 M=1.0 
C1718 GD 135  136.2294E-18 M=1.0 
C1719 GD 134  136.2294E-18 M=1.0 
C1720 GD 133  136.2294E-18 M=1.0 
C1721 GD 113  136.2294E-18 M=1.0 
C1722 GD 37  133.0416E-18 M=1.0 
C1723 A_4 347  75.2328E-18 M=1.0 
C1724 A6B4 GD  133.0416E-18 M=1.0 
C1725 VD 781  30.4272E-18 M=1.0 
C1726 VD 542  30.4272E-18 M=1.0 
C1727 VD 417  30.4272E-18 M=1.0 
C1728 VD 416  30.4272E-18 M=1.0 
C1729 VD 349  30.4272E-18 M=1.0 
C1730 VD 348  30.4272E-18 M=1.0 
C1731 VD 316  102.8232E-18 M=1.0 
C1732 VD 301  30.4272E-18 M=1.0 
C1733 VD 287  30.4271999999998E-18 M=1.0 
C1734 VD 285  30.4272000000001E-18 M=1.0 
C1735 VD 283  30.4271999999998E-18 M=1.0 
C1736 VD 282  30.4272000000001E-18 M=1.0 
C1737 VD 277  30.4272000000001E-18 M=1.0 
C1738 VD 275  30.4271999999999E-18 M=1.0 
C1739 VD 273  102.8232E-18 M=1.0 
C1740 VD 272  30.4272E-18 M=1.0 
C1741 VD 271  30.4272E-18 M=1.0 
C1742 VD 269  30.4272E-18 M=1.0 
C1743 VD 266  30.4272E-18 M=1.0 
C1744 VD 265  30.4272E-18 M=1.0 
C1745 VD 263  30.4272E-18 M=1.0 
C1746 VD 261  30.4272E-18 M=1.0 
C1747 VD 260  30.4272E-18 M=1.0 
C1748 VD 259  30.4272E-18 M=1.0 
C1749 VD 257  30.4272E-18 M=1.0 
C1750 VD 255  102.8232E-18 M=1.0 
C1751 VD 254  30.4271999999999E-18 M=1.0 
C1752 VD 253  30.4271999999999E-18 M=1.0 
C1753 VD 251  30.4271999999999E-18 M=1.0 
C1754 VD 249  102.8232E-18 M=1.0 
C1755 VD 248  30.4272000000001E-18 M=1.0 
C1756 VD 247  30.4271999999999E-18 M=1.0 
C1757 VD 246  30.4272000000001E-18 M=1.0 
C1758 VD 243  30.4271999999999E-18 M=1.0 
C1759 VD 240  30.4271999999998E-18 M=1.0 
C1760 VD 238  30.4272000000001E-18 M=1.0 
C1761 VD 236  102.8232E-18 M=1.0 
C1762 VD 235  30.4272000000001E-18 M=1.0 
C1763 VD 234  30.4271999999999E-18 M=1.0 
C1764 VD 233  30.4272000000001E-18 M=1.0 
C1765 VD 216  102.8232E-18 M=1.0 
C1766 VD 210  102.8232E-18 M=1.0 
C1767 VD 206  30.4272E-18 M=1.0 
C1768 VD 202  30.4271999999999E-18 M=1.0 
C1769 VD 200  30.4271999999999E-18 M=1.0 
C1770 VD 199  30.4272000000001E-18 M=1.0 
C1771 VD 176  30.4272E-18 M=1.0 
C1772 VD 143  106.626599999999E-18 M=1.0 
C1773 VD 6  106.626599999999E-18 M=1.0 
C1774 VD GD  49.6433978999999E-15 M=1.0 
C1775 VD A_4  20.4129E-18 M=1.0 
C1776 VD S_7  30.4272E-18 M=1.0 
C1777 A7B3 VD  106.6266E-18 M=1.0 
C1778 722 780  74.9664E-18 M=1.0 
C1779 722 779  117.0432E-18 M=1.0 
C1780 691 694  65.0448E-18 M=1.0 
C1781 560 591  211.34925E-18 M=1.0 
C1782 444 533  69.9552E-18 M=1.0 
C1783 387 418  117.0432E-18 M=1.0 
C1784 387 417  74.9664E-18 M=1.0 
C1785 348 369  74.9664E-18 M=1.0 
C1786 347 369  117.0432E-18 M=1.0 
C1787 329 821  34.9776E-18 M=1.0 
C1788 324 821  34.9776E-18 M=1.0 
C1789 324 820  34.9776E-18 M=1.0 
C1790 324 329  174.888E-18 M=1.0 
C1791 316 827  69.9552E-18 M=1.0 
C1792 316 826  34.9776E-18 M=1.0 
C1793 287 833  69.2001000000001E-18 M=1.0 
C1794 278 279  174.888E-18 M=1.0 
C1795 277 829  69.2001E-18 M=1.0 
C1796 276 277  69.2001E-18 M=1.0 
C1797 275 277  135E-18 M=1.0 
C1798 273 825  69.9552E-18 M=1.0 
C1799 273 824  34.9776E-18 M=1.0 
C1800 273 277  65.0448E-18 M=1.0 
C1801 272 827  34.9776E-18 M=1.0 
C1802 272 826  34.9776E-18 M=1.0 
C1803 272 316  139.9104E-18 M=1.0 
C1804 271 827  69.2001E-18 M=1.0 
C1805 271 316  169.9776E-18 M=1.0 
C1806 271 272  139.9104E-18 M=1.0 
C1807 270 316  69.9552E-18 M=1.0 
C1808 270 272  34.9776E-18 M=1.0 
C1809 270 271  69.2001E-18 M=1.0 
C1810 269 316  100.0224E-18 M=1.0 
C1811 269 272  100.0224E-18 M=1.0 
C1812 269 271  135E-18 M=1.0 
C1813 268 316  34.9776E-18 M=1.0 
C1814 268 272  34.9776E-18 M=1.0 
C1815 267 271  65.0448E-18 M=1.0 
C1816 265 825  69.2001E-18 M=1.0 
C1817 265 273  169.9776E-18 M=1.0 
C1818 264 273  69.9552E-18 M=1.0 
C1819 264 265  69.2001E-18 M=1.0 
C1820 263 273  100.0224E-18 M=1.0 
C1821 263 265  135E-18 M=1.0 
C1822 262 273  34.9776E-18 M=1.0 
C1823 261 317  174.888E-18 M=1.0 
C1824 261 303  204.9552E-18 M=1.0 
C1825 261 265  65.0448E-18 M=1.0 
C1826 259 823  69.2001E-18 M=1.0 
C1827 258 259  69.2001E-18 M=1.0 
C1828 257 259  135E-18 M=1.0 
C1829 255 259  65.0448E-18 M=1.0 
C1830 253 821  69.2001E-18 M=1.0 
C1831 253 329  204.9552E-18 M=1.0 
C1832 253 324  139.9104E-18 M=1.0 
C1833 252 329  34.9776E-18 M=1.0 
C1834 252 324  34.9776E-18 M=1.0 
C1835 252 253  69.2001E-18 M=1.0 
C1836 251 329  100.0224E-18 M=1.0 
C1837 251 324  100.0224E-18 M=1.0 
C1838 251 253  135E-18 M=1.0 
C1839 250 324  34.9776E-18 M=1.0 
C1840 249 253  65.0448E-18 M=1.0 
C1841 247 827  34.9776E-18 M=1.0 
C1842 247 322  65.0448E-18 M=1.0 
C1843 247 316  174.888E-18 M=1.0 
C1844 247 272  174.888E-18 M=1.0 
C1845 247 271  204.9552E-18 M=1.0 
C1846 247 270  34.9776E-18 M=1.0 
C1847 247 269  100.0224E-18 M=1.0 
C1848 240 818  69.2001000000001E-18 M=1.0 
C1849 239 240  69.2001000000001E-18 M=1.0 
C1850 238 240  135E-18 M=1.0 
C1851 236 240  65.0448E-18 M=1.0 
C1852 231 232  69.2001E-18 M=1.0 
C1853 230 232  135E-18 M=1.0 
C1854 228 829  69.9552E-18 M=1.0 
C1855 228 828  34.9776E-18 M=1.0 
C1856 228 277  169.9776E-18 M=1.0 
C1857 228 276  69.9552E-18 M=1.0 
C1858 228 275  100.0224E-18 M=1.0 
C1859 228 274  34.9776E-18 M=1.0 
C1860 228 232  65.0448E-18 M=1.0 
C1861 225 226  69.2001E-18 M=1.0 
C1862 224 226  135E-18 M=1.0 
C1863 222 226  65.0448E-18 M=1.0 
C1864 221 825  34.9776E-18 M=1.0 
C1865 221 273  174.888E-18 M=1.0 
C1866 221 265  204.9552E-18 M=1.0 
C1867 221 264  34.9776E-18 M=1.0 
C1868 221 263  100.0224E-18 M=1.0 
C1869 219 220  69.2001E-18 M=1.0 
C1870 218 220  135E-18 M=1.0 
C1871 216 823  69.9552E-18 M=1.0 
C1872 216 822  34.9776E-18 M=1.0 
C1873 216 259  169.9776E-18 M=1.0 
C1874 216 258  69.9552E-18 M=1.0 
C1875 216 257  100.0224E-18 M=1.0 
C1876 216 256  34.9776E-18 M=1.0 
C1877 216 220  65.0448E-18 M=1.0 
C1878 215 825  34.9776E-18 M=1.0 
C1879 215 824  34.9776E-18 M=1.0 
C1880 215 273  139.9104E-18 M=1.0 
C1881 215 265  139.9104E-18 M=1.0 
C1882 215 264  34.9776E-18 M=1.0 
C1883 215 263  100.0224E-18 M=1.0 
C1884 215 262  34.9776E-18 M=1.0 
C1885 215 221  174.888E-18 M=1.0 
C1886 214 279  139.9104E-18 M=1.0 
C1887 214 278  204.9552E-18 M=1.0 
C1888 213 279  34.9776E-18 M=1.0 
C1889 213 278  34.9776E-18 M=1.0 
C1890 213 214  69.2001E-18 M=1.0 
C1891 212 279  100.0224E-18 M=1.0 
C1892 212 278  100.0224E-18 M=1.0 
C1893 212 214  135E-18 M=1.0 
C1894 211 279  34.9776E-18 M=1.0 
C1895 210 821  69.9552E-18 M=1.0 
C1896 210 820  34.9776E-18 M=1.0 
C1897 210 329  174.888E-18 M=1.0 
C1898 210 324  139.9104E-18 M=1.0 
C1899 210 253  169.9776E-18 M=1.0 
C1900 210 252  69.9552E-18 M=1.0 
C1901 210 251  100.0224E-18 M=1.0 
C1902 210 250  34.9776E-18 M=1.0 
C1903 210 214  65.0448E-18 M=1.0 
C1904 209 823  34.9776E-18 M=1.0 
C1905 209 822  34.9776E-18 M=1.0 
C1906 209 259  139.9104E-18 M=1.0 
C1907 209 258  34.9776E-18 M=1.0 
C1908 209 257  100.0224E-18 M=1.0 
C1909 209 256  34.9776E-18 M=1.0 
C1910 209 216  139.9104E-18 M=1.0 
C1911 207 208  69.2001E-18 M=1.0 
C1912 206 208  135E-18 M=1.0 
C1913 204 208  65.0448E-18 M=1.0 
C1914 203 823  34.9776E-18 M=1.0 
C1915 203 259  204.9552E-18 M=1.0 
C1916 203 258  34.9776E-18 M=1.0 
C1917 203 257  100.0224E-18 M=1.0 
C1918 203 216  174.888E-18 M=1.0 
C1919 203 209  174.888E-18 M=1.0 
C1920 202 819  69.2001E-18 M=1.0 
C1921 201 202  69.2001E-18 M=1.0 
C1922 200 806  69.2001000000001E-18 M=1.0 
C1923 200 245  65.0448E-18 M=1.0 
C1924 200 234  135E-18 M=1.0 
C1925 199 805  69.2001000000001E-18 M=1.0 
C1926 199 244  65.0448000000001E-18 M=1.0 
C1927 199 233  135E-18 M=1.0 
C1928 198 200  69.2001000000001E-18 M=1.0 
C1929 196 199  69.2001E-18 M=1.0 
C1930 191 219  69.9552E-18 M=1.0 
C1931 191 218  100.0224E-18 M=1.0 
C1932 191 217  34.9776E-18 M=1.0 
C1933 190 829  34.9776E-18 M=1.0 
C1934 190 277  204.9552E-18 M=1.0 
C1935 190 276  34.9776E-18 M=1.0 
C1936 190 275  100.0224E-18 M=1.0 
C1937 190 228  174.888E-18 M=1.0 
C1938 187 226  139.9104E-18 M=1.0 
C1939 187 225  34.9776E-18 M=1.0 
C1940 187 224  100.0224E-18 M=1.0 
C1941 187 223  34.9776E-18 M=1.0 
C1942 185 829  34.9776E-18 M=1.0 
C1943 185 828  34.9776E-18 M=1.0 
C1944 185 277  139.9104E-18 M=1.0 
C1945 185 276  34.9776E-18 M=1.0 
C1946 185 275  100.0224E-18 M=1.0 
C1947 185 274  34.9776E-18 M=1.0 
C1948 185 228  139.9104E-18 M=1.0 
C1949 185 190  174.888E-18 M=1.0 
C1950 180 214  169.9776E-18 M=1.0 
C1951 180 213  69.9552E-18 M=1.0 
C1952 180 212  100.0224E-18 M=1.0 
C1953 180 211  34.9776E-18 M=1.0 
C1954 179 220  204.9552E-18 M=1.0 
C1955 179 219  34.9776E-18 M=1.0 
C1956 179 218  100.0224E-18 M=1.0 
C1957 174 208  139.9104E-18 M=1.0 
C1958 174 207  34.9776E-18 M=1.0 
C1959 174 206  100.0224E-18 M=1.0 
C1960 174 205  34.9776E-18 M=1.0 
C1961 173 220  139.9104E-18 M=1.0 
C1962 173 219  34.9776E-18 M=1.0 
C1963 173 218  100.0224E-18 M=1.0 
C1964 173 217  34.9776E-18 M=1.0 
C1965 169 231  34.9776E-18 M=1.0 
C1966 169 230  100.0224E-18 M=1.0 
C1967 166 233  100.0224E-18 M=1.0 
C1968 166 199  204.9552E-18 M=1.0 
C1969 165 833  34.9776E-18 M=1.0 
C1970 147 231  69.9552E-18 M=1.0 
C1971 147 230  100.0224E-18 M=1.0 
C1972 147 229  34.9776E-18 M=1.0 
C1973 145 167  174.888E-18 M=1.0 
C1974 144 830  34.9776E-18 M=1.0 
C1975 144 241  34.9776E-18 M=1.0 
C1976 144 233  100.0224E-18 M=1.0 
C1977 144 199  169.9776E-18 M=1.0 
C1978 143 833  69.9552000000001E-18 M=1.0 
C1979 143 832  34.9776E-18 M=1.0 
C1980 143 165  174.888E-18 M=1.0 
C1981 138 819  34.9776E-18 M=1.0 
C1982 138 202  139.9104E-18 M=1.0 
C1983 138 201  34.9776E-18 M=1.0 
C1984 137 232  139.9104E-18 M=1.0 
C1985 137 231  34.9776E-18 M=1.0 
C1986 137 230  100.0224E-18 M=1.0 
C1987 137 229  34.9776E-18 M=1.0 
C1988 135 167  174.888E-18 M=1.0 
C1989 134 830  34.9776E-18 M=1.0 
C1990 134 805  34.9776E-18 M=1.0 
C1991 134 241  34.9776E-18 M=1.0 
C1992 134 233  100.0224E-18 M=1.0 
C1993 134 199  139.9104E-18 M=1.0 
C1994 134 196  34.9776E-18 M=1.0 
C1995 134 166  174.888E-18 M=1.0 
C1996 134 144  139.9104E-18 M=1.0 
C1997 133 833  34.9776E-18 M=1.0 
C1998 133 832  34.9776E-18 M=1.0 
C1999 133 165  174.888E-18 M=1.0 
C2000 133 143  139.9104E-18 M=1.0 
C2001 113 831  34.9776E-18 M=1.0 
C2002 113 806  34.9776E-18 M=1.0 
C2003 113 242  34.9776E-18 M=1.0 
C2004 113 234  100.0224E-18 M=1.0 
C2005 113 200  139.9104E-18 M=1.0 
C2006 113 198  34.9776E-18 M=1.0 
C2007 112 818  34.9776E-18 M=1.0 
C2008 112 817  34.9776E-18 M=1.0 
C2009 112 240  139.9104E-18 M=1.0 
C2010 112 239  34.9776E-18 M=1.0 
C2011 112 238  100.0224E-18 M=1.0 
C2012 112 237  34.9776E-18 M=1.0 
C2013 103 226  169.9776E-18 M=1.0 
C2014 103 225  69.9552E-18 M=1.0 
C2015 103 224  100.0224E-18 M=1.0 
C2016 103 223  34.9776E-18 M=1.0 
C2017 102 208  204.9552E-18 M=1.0 
C2018 102 207  34.9776E-18 M=1.0 
C2019 102 206  100.0224E-18 M=1.0 
C2020 38 234  100.0224E-18 M=1.0 
C2021 38 200  204.9552E-18 M=1.0 
C2022 38 113  174.888E-18 M=1.0 
C2023 37 818  34.9776E-18 M=1.0 
C2024 37 240  204.9552E-18 M=1.0 
C2025 37 239  34.9776E-18 M=1.0 
C2026 37 238  100.0224E-18 M=1.0 
C2027 37 112  174.888E-18 M=1.0 
C2028 26 225  34.9776E-18 M=1.0 
C2029 26 224  100.0224E-18 M=1.0 
C2030 25 207  69.9552E-18 M=1.0 
C2031 25 206  100.0224E-18 M=1.0 
C2032 25 205  34.9776E-18 M=1.0 
C2033 25 174  139.9104E-18 M=1.0 
C2034 25 102  174.888E-18 M=1.0 
C2035 7 831  34.9776E-18 M=1.0 
C2036 7 242  34.9776E-18 M=1.0 
C2037 7 234  100.0224E-18 M=1.0 
C2038 7 200  169.9776E-18 M=1.0 
C2039 7 113  139.9104E-18 M=1.0 
C2040 7 38  174.888E-18 M=1.0 
C2041 6 818  69.9552000000001E-18 M=1.0 
C2042 6 817  34.9776E-18 M=1.0 
C2043 6 240  169.9776E-18 M=1.0 
C2044 6 239  69.9552000000001E-18 M=1.0 
C2045 6 238  100.0224E-18 M=1.0 
C2046 6 237  34.9776E-18 M=1.0 
C2047 6 112  139.9104E-18 M=1.0 
C2048 6 37  174.888E-18 M=1.0 
C2049 GD 591  1.4905539E-15 M=1.0 
C2050 GD 444  236.2554E-18 M=1.0 
C2051 GD 431  6.48416475E-15 M=1.0 
C2052 GD 342  21.6434511E-15 M=1.0 
C2053 GD 329  623.8467E-18 M=1.0 
C2054 GD 324  397.0251E-18 M=1.0 
C2055 GD 279  397.0251E-18 M=1.0 
C2056 GD 277  799.4889E-18 M=1.0 
C2057 GD 276  66.4299E-18 M=1.0 
C2058 GD 275  326.322E-18 M=1.0 
C2059 GD 274  65.9682E-18 M=1.0 
C2060 GD 272  397.0251E-18 M=1.0 
C2061 GD 271  799.4889E-18 M=1.0 
C2062 GD 270  66.4299E-18 M=1.0 
C2063 GD 269  326.322E-18 M=1.0 
C2064 GD 268  65.9682E-18 M=1.0 
C2065 GD 265  799.4889E-18 M=1.0 
C2066 GD 264  66.4299E-18 M=1.0 
C2067 GD 263  326.322E-18 M=1.0 
C2068 GD 262  65.9682E-18 M=1.0 
C2069 GD 259  799.4889E-18 M=1.0 
C2070 GD 258  66.4299E-18 M=1.0 
C2071 GD 257  326.322E-18 M=1.0 
C2072 GD 256  65.9682E-18 M=1.0 
C2073 GD 253  799.4889E-18 M=1.0 
C2074 GD 252  66.4299E-18 M=1.0 
C2075 GD 251  326.322E-18 M=1.0 
C2076 GD 250  65.9682E-18 M=1.0 
C2077 GD 247  623.8467E-18 M=1.0 
C2078 GD 242  65.9682000000001E-18 M=1.0 
C2079 GD 241  65.9682E-18 M=1.0 
C2080 GD 240  799.4889E-18 M=1.0 
C2081 GD 239  66.4299000000001E-18 M=1.0 
C2082 GD 238  326.322E-18 M=1.0 
C2083 GD 237  65.9682E-18 M=1.0 
C2084 GD 234  326.322E-18 M=1.0 
C2085 GD 233  326.322E-18 M=1.0 
C2086 GD 232  799.4889E-18 M=1.0 
C2087 GD 231  66.4299E-18 M=1.0 
C2088 GD 230  326.322E-18 M=1.0 
C2089 GD 229  65.9682E-18 M=1.0 
C2090 GD 226  799.4889E-18 M=1.0 
C2091 GD 225  66.4299E-18 M=1.0 
C2092 GD 224  326.322E-18 M=1.0 
C2093 GD 223  65.9682E-18 M=1.0 
C2094 GD 221  623.8467E-18 M=1.0 
C2095 GD 220  799.4889E-18 M=1.0 
C2096 GD 219  66.4299E-18 M=1.0 
C2097 GD 218  326.322E-18 M=1.0 
C2098 GD 217  65.9682E-18 M=1.0 
C2099 GD 215  397.0251E-18 M=1.0 
C2100 GD 214  799.4889E-18 M=1.0 
C2101 GD 213  66.4299E-18 M=1.0 
C2102 GD 212  326.322E-18 M=1.0 
C2103 GD 211  65.9682E-18 M=1.0 
C2104 GD 209  397.0251E-18 M=1.0 
C2105 GD 208  799.4889E-18 M=1.0 
C2106 GD 207  66.4299E-18 M=1.0 
C2107 GD 206  326.322E-18 M=1.0 
C2108 GD 205  65.9682E-18 M=1.0 
C2109 GD 203  623.8467E-18 M=1.0 
C2110 GD 201  66.4299E-18 M=1.0 
C2111 GD 200  799.4889E-18 M=1.0 
C2112 GD 199  799.4889E-18 M=1.0 
C2113 GD 190  623.8467E-18 M=1.0 
C2114 GD 187  397.0251E-18 M=1.0 
C2115 GD 185  397.0251E-18 M=1.0 
C2116 GD 174  397.0251E-18 M=1.0 
C2117 GD 173  397.0251E-18 M=1.0 
C2118 GD 167  623.8467E-18 M=1.0 
C2119 GD 166  1.9398663E-15 M=1.0 
C2120 GD 165  1.7060022E-15 M=1.0 
C2121 GD 137  3.9809826E-15 M=1.0 
C2122 GD 134  3.2902677E-15 M=1.0 
C2123 GD 113  7.16262209999999E-15 M=1.0 
C2124 GD 112  7.1843769E-15 M=1.0 
C2125 GD 102  623.8467E-18 M=1.0 
C2126 GD 38  9.26035650000001E-15 M=1.0 
C2127 GD 37  9.4343949E-15 M=1.0 
C2128 A6B4 819  34.9776E-18 M=1.0 
C2129 A6B4 202  204.9552E-18 M=1.0 
C2130 A6B4 201  34.9776E-18 M=1.0 
C2131 VD 833  66.4299000000001E-18 M=1.0 
C2132 VD 832  65.9682E-18 M=1.0 
C2133 VD 831  65.9682000000001E-18 M=1.0 
C2134 VD 830  65.9682000000001E-18 M=1.0 
C2135 VD 829  66.4299E-18 M=1.0 
C2136 VD 828  65.9682E-18 M=1.0 
C2137 VD 827  66.4299E-18 M=1.0 
C2138 VD 826  65.9682E-18 M=1.0 
C2139 VD 825  66.4299E-18 M=1.0 
C2140 VD 824  65.9682E-18 M=1.0 
C2141 VD 823  66.4299E-18 M=1.0 
C2142 VD 822  65.9682E-18 M=1.0 
C2143 VD 821  66.4299E-18 M=1.0 
C2144 VD 820  65.9682E-18 M=1.0 
C2145 VD 819  66.4299000000001E-18 M=1.0 
C2146 VD 818  66.4299000000001E-18 M=1.0 
C2147 VD 817  65.9682E-18 M=1.0 
C2148 VD 403  708.7275E-18 M=1.0 
C2149 VD 317  689.1111E-18 M=1.0 
C2150 VD 316  689.1111E-18 M=1.0 
C2151 VD 273  689.1111E-18 M=1.0 
C2152 VD 228  689.1111E-18 M=1.0 
C2153 VD 216  689.1111E-18 M=1.0 
C2154 VD 210  689.1111E-18 M=1.0 
C2155 VD 144  689.1111E-18 M=1.0 
C2156 VD 143  689.1111E-18 M=1.0 
C2157 VD 101  302.4153E-18 M=1.0 
C2158 VD 25  689.1111E-18 M=1.0 
C2159 VD 7  689.1111E-18 M=1.0 
C2160 VD 6  689.1111E-18 M=1.0 
C2161 CLK 542  65.0448E-18 M=1.0 
C2162 A7B3 819  69.9552E-18 M=1.0 
C2163 A7B3 201  69.9552E-18 M=1.0 
C2164 A7B3 138  139.9104E-18 M=1.0 
C2165 A7B3 VD  689.1111E-18 M=1.0 
C2166 722 781  69.741E-18 M=1.0 
C2167 694 781  70.6887E-18 M=1.0 
C2168 694 780  105.999075E-18 M=1.0 
C2169 694 721  61.5321E-18 M=1.0 
C2170 593 695  61.5321E-18 M=1.0 
C2171 593 694  61.5321E-18 M=1.0 
C2172 570 591  103.5792E-18 M=1.0 
C2173 566 570  25.6374E-18 M=1.0 
C2174 560 570  36.426375E-18 M=1.0 
C2175 542 570  47.5848E-18 M=1.0 
C2176 538 590  279.045E-18 M=1.0 
C2177 529 538  66.1824E-18 M=1.0 
C2178 467 533  61.938E-18 M=1.0 
C2179 467 477  43.9335E-18 M=1.0 
C2180 466 467  79.81695E-18 M=1.0 
C2181 324 821  52.6203E-18 M=1.0 
C2182 324 407  52.3044E-18 M=1.0 
C2183 324 329  52.3044E-18 M=1.0 
C2184 316 427  52.3044E-18 M=1.0 
C2185 299 417  70.0569E-18 M=1.0 
C2186 299 416  70.0569E-18 M=1.0 
C2187 298 417  79.8939E-18 M=1.0 
C2188 298 416  75.861E-18 M=1.0 
C2189 293 418  211.437E-18 M=1.0 
C2190 293 417  44.1036E-18 M=1.0 
C2191 293 416  69.741E-18 M=1.0 
C2192 283 285  51.43365E-18 M=1.0 
C2193 282 285  70.6887E-18 M=1.0 
C2194 282 283  364.7709E-18 M=1.0 
C2195 278 338  52.3044E-18 M=1.0 
C2196 273 825  52.6203E-18 M=1.0 
C2197 273 431  52.3044E-18 M=1.0 
C2198 273 427  52.3044E-18 M=1.0 
C2199 273 423  52.3044E-18 M=1.0 
C2200 273 362  52.3044E-18 M=1.0 
C2201 273 358  52.3044E-18 M=1.0 
C2202 273 354  52.3044E-18 M=1.0 
C2203 272 827  385.08345E-18 M=1.0 
C2204 272 431  52.3044E-18 M=1.0 
C2205 272 427  52.3044E-18 M=1.0 
C2206 272 362  52.3044E-18 M=1.0 
C2207 272 316  72.756E-18 M=1.0 
C2208 267 423  693.0297E-18 M=1.0 
C2209 267 358  52.3044E-18 M=1.0 
C2210 267 271  25.6374E-18 M=1.0 
C2211 266 316  25.6374E-18 M=1.0 
C2212 266 272  25.6374E-18 M=1.0 
C2213 266 271  51.2748E-18 M=1.0 
C2214 266 269  26.5851E-18 M=1.0 
C2215 266 267  88.2072E-18 M=1.0 
C2216 261 265  25.6374E-18 M=1.0 
C2217 260 273  51.2748E-18 M=1.0 
C2218 260 265  51.2748E-18 M=1.0 
C2219 260 264  52.3044E-18 M=1.0 
C2220 260 263  69.741E-18 M=1.0 
C2221 260 261  88.2072E-18 M=1.0 
C2222 255 411  699.4602E-18 M=1.0 
C2223 255 346  52.3044E-18 M=1.0 
C2224 255 259  25.6374E-18 M=1.0 
C2225 254 259  51.2748E-18 M=1.0 
C2226 254 258  52.3044E-18 M=1.0 
C2227 254 257  69.741E-18 M=1.0 
C2228 254 255  88.2072E-18 M=1.0 
C2229 252 329  52.3044E-18 M=1.0 
C2230 249 253  25.6374E-18 M=1.0 
C2231 248 329  146.0682E-18 M=1.0 
C2232 248 324  121.5837E-18 M=1.0 
C2233 248 253  103.5792E-18 M=1.0 
C2234 248 252  96.553575E-18 M=1.0 
C2235 248 251  70.6887E-18 M=1.0 
C2236 248 249  88.68105E-18 M=1.0 
C2237 247 322  148.2714E-18 M=1.0 
C2238 247 272  62.5302E-18 M=1.0 
C2239 247 270  52.3044E-18 M=1.0 
C2240 247 266  25.6374E-18 M=1.0 
C2241 245 324  41.7807E-18 M=1.0 
C2242 245 278  44.1036E-18 M=1.0 
C2243 244 278  88.2072E-18 M=1.0 
C2244 243 247  44.1036E-18 M=1.0 
C2245 242 324  223.2162E-18 M=1.0 
C2246 241 278  52.3044E-18 M=1.0 
C2247 236 240  77.9418E-18 M=1.0 
C2248 235 832  203.13765E-18 M=1.0 
C2249 235 285  43.20225E-18 M=1.0 
C2250 235 240  77.9418E-18 M=1.0 
C2251 235 238  77.9418E-18 M=1.0 
C2252 235 236  88.68105E-18 M=1.0 
C2253 234 324  26.4798E-18 M=1.0 
C2254 234 278  462.87E-18 M=1.0 
C2255 234 245  47.6892E-18 M=1.0 
C2256 233 278  77.9418E-18 M=1.0 
C2257 228 829  52.3044E-18 M=1.0 
C2258 228 232  70.1631E-18 M=1.0 
C2259 222 226  52.3044E-18 M=1.0 
C2260 221 825  52.3044E-18 M=1.0 
C2261 221 273  52.3044E-18 M=1.0 
C2262 221 260  76.9122E-18 M=1.0 
C2263 219 221  52.3044E-18 M=1.0 
C2264 216 823  52.6203E-18 M=1.0 
C2265 216 254  51.2748E-18 M=1.0 
C2266 215 825  70.1847E-18 M=1.0 
C2267 215 273  52.3044E-18 M=1.0 
C2268 215 260  95.0625E-18 M=1.0 
C2269 215 221  52.3044E-18 M=1.0 
C2270 215 220  51.2748E-18 M=1.0 
C2271 215 219  93.049425E-18 M=1.0 
C2272 215 218  72.11025E-18 M=1.0 
C2273 215 217  220.94325E-18 M=1.0 
C2274 215 216  89.391825E-18 M=1.0 
C2275 210 821  52.6203E-18 M=1.0 
C2276 210 324  52.3044E-18 M=1.0 
C2277 210 248  185.4036E-18 M=1.0 
C2278 210 214  122.0454E-18 M=1.0 
C2279 210 213  52.3044E-18 M=1.0 
C2280 210 212  69.741E-18 M=1.0 
C2281 209 823  105.145425E-18 M=1.0 
C2282 209 254  95.0625E-18 M=1.0 
C2283 209 216  77.9418E-18 M=1.0 
C2284 208 209  52.3044E-18 M=1.0 
C2285 204 411  52.3044E-18 M=1.0 
C2286 204 346  52.3044E-18 M=1.0 
C2287 204 342  739.007100000001E-18 M=1.0 
C2288 204 259  25.6374E-18 M=1.0 
C2289 204 255  351.789975E-18 M=1.0 
C2290 204 254  30.22515E-18 M=1.0 
C2291 204 208  52.3044E-18 M=1.0 
C2292 203 823  52.3044E-18 M=1.0 
C2293 203 254  76.9122E-18 M=1.0 
C2294 203 216  52.3044E-18 M=1.0 
C2295 203 209  103.5792E-18 M=1.0 
C2296 203 208  302.364E-18 M=1.0 
C2297 203 207  52.3044E-18 M=1.0 
C2298 203 206  69.741E-18 M=1.0 
C2299 200 324  51.2748E-18 M=1.0 
C2300 200 279  1.0730646E-15 M=1.0 
C2301 200 278  264.929175E-18 M=1.0 
C2302 199 278  77.9418E-18 M=1.0 
C2303 199 244  77.9418E-18 M=1.0 
C2304 191 215  33.2703E-18 M=1.0 
C2305 190 829  70.614E-18 M=1.0 
C2306 190 228  52.3044E-18 M=1.0 
C2307 185 829  87.5142E-18 M=1.0 
C2308 185 228  52.3044E-18 M=1.0 
C2309 185 190  52.3044E-18 M=1.0 
C2310 180 210  120.6999E-18 M=1.0 
C2311 179 221  100.8315E-18 M=1.0 
C2312 176 179  72.5841E-18 M=1.0 
C2313 174 209  131.9463E-18 M=1.0 
C2314 174 203  118.9908E-18 M=1.0 
C2315 173 178  103.5792E-18 M=1.0 
C2316 173 176  69.741E-18 M=1.0 
C2317 171 202  122.0454E-18 M=1.0 
C2318 169 228  71.4348E-18 M=1.0 
C2319 167 179  154.2843E-18 M=1.0 
C2320 167 173  116.5779E-18 M=1.0 
C2321 166 278  77.9418E-18 M=1.0 
C2322 165 833  52.3044E-18 M=1.0 
C2323 165 283  25.6374E-18 M=1.0 
C2324 165 282  77.9418E-18 M=1.0 
C2325 165 240  52.3044E-18 M=1.0 
C2326 165 239  46.269E-18 M=1.0 
C2327 165 235  162.6327E-18 M=1.0 
C2328 147 228  71.4348E-18 M=1.0 
C2329 145 179  118.845E-18 M=1.0 
C2330 145 173  51.2748E-18 M=1.0 
C2331 144 278  25.6374E-18 M=1.0 
C2332 143 833  52.6203000000001E-18 M=1.0 
C2333 143 283  25.6374E-18 M=1.0 
C2334 143 282  181.701E-18 M=1.0 
C2335 143 240  271.8522E-18 M=1.0 
C2336 143 239  52.3044000000001E-18 M=1.0 
C2337 143 235  95.9463E-18 M=1.0 
C2338 143 165  52.3044E-18 M=1.0 
C2339 142 164  52.3044E-18 M=1.0 
C2340 141 164  65.7449999999999E-18 M=1.0 
C2341 138 819  52.6203E-18 M=1.0 
C2342 137 228  53.5761E-18 M=1.0 
C2343 135 179  111.2121E-18 M=1.0 
C2344 135 173  103.5792E-18 M=1.0 
C2345 134 805  52.6203E-18 M=1.0 
C2346 134 403  52.3044E-18 M=1.0 
C2347 134 166  52.3044E-18 M=1.0 
C2348 134 144  52.3044E-18 M=1.0 
C2349 133 833  52.6203E-18 M=1.0 
C2350 133 283  463.4541E-18 M=1.0 
C2351 133 282  103.5792E-18 M=1.0 
C2352 133 240  304.7454E-18 M=1.0 
C2353 133 238  52.3044E-18 M=1.0 
C2354 133 235  111.3579E-18 M=1.0 
C2355 133 165  52.3044E-18 M=1.0 
C2356 133 143  52.3044E-18 M=1.0 
C2357 116 277  96.408E-18 M=1.0 
C2358 116 276  52.3044E-18 M=1.0 
C2359 116 228  51.2748E-18 M=1.0 
C2360 116 190  25.6374E-18 M=1.0 
C2361 116 185  95.09895E-18 M=1.0 
C2362 113 806  52.6203E-18 M=1.0 
C2363 113 338  52.3044E-18 M=1.0 
C2364 113 278  58.9077E-18 M=1.0 
C2365 113 245  307.7406E-18 M=1.0 
C2366 113 199  96.408E-18 M=1.0 
C2367 113 196  69.156E-18 M=1.0 
C2368 113 134  72.3096E-18 M=1.0 
C2369 112 818  52.6203E-18 M=1.0 
C2370 112 165  343.23795E-18 M=1.0 
C2371 112 143  70.3089E-18 M=1.0 
C2372 112 133  52.3044E-18 M=1.0 
C2373 102 203  193.8933E-18 M=1.0 
C2374 101 403  52.3044E-18 M=1.0 
C2375 101 244  97.8295499999999E-18 M=1.0 
C2376 101 233  72.5840999999999E-18 M=1.0 
C2377 101 199  51.2748E-18 M=1.0 
C2378 101 166  25.6374E-18 M=1.0 
C2379 101 144  95.044275E-18 M=1.0 
C2380 101 134  209.9376E-18 M=1.0 
C2381 38 324  25.6374E-18 M=1.0 
C2382 38 278  84.5451E-18 M=1.0 
C2383 38 245  25.6374E-18 M=1.0 
C2384 38 113  52.3044E-18 M=1.0 
C2385 37 235  46.2690000000002E-18 M=1.0 
C2386 37 165  113.6592E-18 M=1.0 
C2387 37 143  300.6396E-18 M=1.0 
C2388 37 133  52.3044E-18 M=1.0 
C2389 37 112  52.3044E-18 M=1.0 
C2390 29 316  56.007E-18 M=1.0 
C2391 29 272  248.2848E-18 M=1.0 
C2392 29 271  52.3044E-18 M=1.0 
C2393 29 247  52.3044E-18 M=1.0 
C2394 29 226  52.3044E-18 M=1.0 
C2395 29 187  296.153775E-18 M=1.0 
C2396 28 825  52.3044E-18 M=1.0 
C2397 28 273  327.6306E-18 M=1.0 
C2398 28 264  52.3044E-18 M=1.0 
C2399 28 219  52.3044E-18 M=1.0 
C2400 27 276  52.3044E-18 M=1.0 
C2401 27 228  51.2748E-18 M=1.0 
C2402 27 190  59.0535E-18 M=1.0 
C2403 7 278  58.9077E-18 M=1.0 
C2404 7 245  25.6374E-18 M=1.0 
C2405 7 113  52.3044E-18 M=1.0 
C2406 6 818  52.3044E-18 M=1.0 
C2407 6 165  72.756E-18 M=1.0 
C2408 6 143  158.0301E-18 M=1.0 
C2409 6 133  52.3044E-18 M=1.0 
C2410 6 112  52.3044E-18 M=1.0 
C2411 GD 695  409.9923E-18 M=1.0 
C2412 GD 694  2.030597775E-15 M=1.0 
C2413 GD 570  1.2086793E-15 M=1.0 
C2414 GD 467  565.771275E-18 M=1.0 
C2415 GD 278  1.812127725E-15 M=1.0 
C2416 GD 273  120.260925E-18 M=1.0 
C2417 GD 272  199.72935E-18 M=1.0 
C2418 GD 261  930.60585E-18 M=1.0 
C2419 GD 260  963.3231E-18 M=1.0 
C2420 GD 254  1.01325015E-15 M=1.0 
C2421 GD 248  577.764225E-18 M=1.0 
C2422 GD 245  822.7701E-18 M=1.0 
C2423 GD 236  2.11742505E-15 M=1.0 
C2424 GD 235  1.03442085E-15 M=1.0 
C2425 GD 228  1.20018915E-15 M=1.0 
C2426 GD 221  370.72125E-18 M=1.0 
C2427 GD 215  559.624725E-18 M=1.0 
C2428 GD 210  1.005237E-15 M=1.0 
C2429 GD 209  444.789E-18 M=1.0 
C2430 GD 179  1.73113875E-15 M=1.0 
C2431 GD 173  1.91564145E-15 M=1.0 
C2432 GD 165  8.459765325E-15 M=1.0 
C2433 GD 143  2.87887545E-15 M=1.0 
C2434 GD 138  4.771053E-15 M=1.0 
C2435 GD 134  7.8385437E-15 M=1.0 
C2436 GD 133  9.017502975E-15 M=1.0 
C2437 GD 113  4.08592845E-15 M=1.0 
C2438 GD 112  3.22996815E-15 M=1.0 
C2439 A0ININ 104  2.2316544E-15 M=1.0 
C2440 A6B4 819  52.3044E-18 M=1.0 
C2441 A6B4 171  102.5496E-18 M=1.0 
C2442 A6B4 138  104.6088E-18 M=1.0 
C2443 S_7 722  44.1036E-18 M=1.0 
C2444 S_7 694  44.1036E-18 M=1.0 
C2445 VD 695  175.29885E-18 M=1.0 
C2446 VD 694  712.6848E-18 M=1.0 
C2447 VD 324  1.6888104E-15 M=1.0 
C2448 VD 278  963.157725000001E-18 M=1.0 
C2449 VD 273  2.400108975E-15 M=1.0 
C2450 VD 272  170.59995E-18 M=1.0 
C2451 VD 267  296.9703E-18 M=1.0 
C2452 VD 249  40.88565E-18 M=1.0 
C2453 VD 248  532.1844E-18 M=1.0 
C2454 VD 235  904.632075E-18 M=1.0 
C2455 VD 228  123.8805E-18 M=1.0 
C2456 VD 221  164.0043E-18 M=1.0 
C2457 VD 215  140.443875E-18 M=1.0 
C2458 VD 210  140.2596E-18 M=1.0 
C2459 VD 209  298.221975E-18 M=1.0 
C2460 VD 204  789.64245E-18 M=1.0 
C2461 VD 203  775.522575E-18 M=1.0 
C2462 VD 185  48.48975E-18 M=1.0 
C2463 VD 164  299.7117E-18 M=1.0 
C2464 VD 143  417.4803E-18 M=1.0 
C2465 VD 142  160.416225E-18 M=1.0 
C2466 VD 138  302.508E-18 M=1.0 
C2467 VD 134  683.43885E-18 M=1.0 
C2468 VD 133  631.290375E-18 M=1.0 
C2469 VD 113  377.8434E-18 M=1.0 
C2470 VD 29  675.654975E-18 M=1.0 
C2471 VD 6  252.355275E-18 M=1.0 
C2472 VD A6B4  241.279875E-18 M=1.0 
C2473 CLK 542  707.4909E-18 M=1.0 
C2474 A7B4 138  52.3044E-18 M=1.0 
C2475 A7B3 819  52.6203E-18 M=1.0 
C2476 A7B3 138  104.6088E-18 M=1.0 
C2477 A7B3 A6B4  104.6088E-18 M=1.0 
C2478 A7B3 VD  467.1018E-18 M=1.0 
C2479 582 590  63.7317E-18 M=1.0 
C2480 533 590  49.5477E-18 M=1.0 
C2481 529 590  49.5477E-18 M=1.0 
C2482 529 533  53.75565E-18 M=1.0 
C2483 477 590  63.7317E-18 M=1.0 
C2484 245 338  49.5477E-18 M=1.0 
C2485 227 232  197.7363E-18 M=1.0 
C2486 227 230  64.755E-18 M=1.0 
C2487 227 228  83.3373E-18 M=1.0 
C2488 222 423  49.5477E-18 M=1.0 
C2489 222 419  49.5477E-18 M=1.0 
C2490 222 415  20.5659E-18 M=1.0 
C2491 222 358  49.5477E-18 M=1.0 
C2492 222 354  49.5477E-18 M=1.0 
C2493 222 350  49.5477E-18 M=1.0 
C2494 222 346  1.28310075E-15 M=1.0 
C2495 222 255  88.04385E-18 M=1.0 
C2496 222 226  21.0402E-18 M=1.0 
C2497 221 423  49.5477E-18 M=1.0 
C2498 221 358  49.5477E-18 M=1.0 
C2499 221 354  49.5477E-18 M=1.0 
C2500 221 222  102.3534E-18 M=1.0 
C2501 220 222  85.7952E-18 M=1.0 
C2502 218 222  64.755E-18 M=1.0 
C2503 216 222  102.3534E-18 M=1.0 
C2504 215 222  74.1573E-18 M=1.0 
C2505 209 411  49.5477E-18 M=1.0 
C2506 209 346  49.5477E-18 M=1.0 
C2507 209 342  49.5477E-18 M=1.0 
C2508 209 279  63.1206E-18 M=1.0 
C2509 209 278  84.1608E-18 M=1.0 
C2510 209 222  58.6386E-18 M=1.0 
C2511 209 214  85.7952E-18 M=1.0 
C2512 209 212  132.669E-18 M=1.0 
C2513 209 210  74.1573E-18 M=1.0 
C2514 208 222  85.7952E-18 M=1.0 
C2515 208 209  42.0804E-18 M=1.0 
C2516 207 222  89.6265E-18 M=1.0 
C2517 206 222  64.755E-18 M=1.0 
C2518 206 209  135.963E-18 M=1.0 
C2519 205 222  89.6265E-18 M=1.0 
C2520 204 209  83.3373E-18 M=1.0 
C2521 203 222  102.3534E-18 M=1.0 
C2522 203 209  43.7148E-18 M=1.0 
C2523 201 227  49.5477E-18 M=1.0 
C2524 199 245  49.5477E-18 M=1.0 
C2525 191 222  71.48565E-18 M=1.0 
C2526 191 221  29.40525E-18 M=1.0 
C2527 185 829  33.13305E-18 M=1.0 
C2528 185 828  100.035E-18 M=1.0 
C2529 185 431  49.5477E-18 M=1.0 
C2530 185 427  869.804325E-18 M=1.0 
C2531 185 362  49.5477E-18 M=1.0 
C2532 185 277  42.0804E-18 M=1.0 
C2533 185 275  59.8014E-18 M=1.0 
C2534 185 273  136.512E-18 M=1.0 
C2535 185 228  42.0804E-18 M=1.0 
C2536 185 190  63.1206E-18 M=1.0 
C2537 180 209  84.1608E-18 M=1.0 
C2538 179 222  63.1206E-18 M=1.0 
C2539 174 222  42.0804E-18 M=1.0 
C2540 174 209  21.0402E-18 M=1.0 
C2541 173 222  63.1206E-18 M=1.0 
C2542 171 227  117.2772E-18 M=1.0 
C2543 170 289  36.486E-18 M=1.0 
C2544 170 247  43.7148E-18 M=1.0 
C2545 170 243  43.7148E-18 M=1.0 
C2546 170 171  150.8508E-18 M=1.0 
C2547 169 227  84.1608E-18 M=1.0 
C2548 166 245  49.5477E-18 M=1.0 
C2549 147 227  84.1608E-18 M=1.0 
C2550 144 245  49.5477E-18 M=1.0 
C2551 138 170  61.77195E-18 M=1.0 
C2552 137 227  63.1206E-18 M=1.0 
C2553 134 245  65.853E-18 M=1.0 
C2554 116 227  58.6386E-18 M=1.0 
C2555 104 227  58.6386E-18 M=1.0 
C2556 102 222  63.1206E-18 M=1.0 
C2557 102 209  21.0402E-18 M=1.0 
C2558 101 245  58.6386000000001E-18 M=1.0 
C2559 40 818  344.2257E-18 M=1.0 
C2560 40 817  201.8844E-18 M=1.0 
C2561 40 806  49.5477E-18 M=1.0 
C2562 40 805  49.5477E-18 M=1.0 
C2563 40 423  49.5477E-18 M=1.0 
C2564 40 419  49.5477E-18 M=1.0 
C2565 40 415  20.5659E-18 M=1.0 
C2566 40 411  49.5477E-18 M=1.0 
C2567 40 407  49.5477E-18 M=1.0 
C2568 40 403  49.5477E-18 M=1.0 
C2569 40 358  49.5477E-18 M=1.0 
C2570 40 354  49.5477E-18 M=1.0 
C2571 40 350  49.5477E-18 M=1.0 
C2572 40 346  49.5477E-18 M=1.0 
C2573 40 342  49.5477E-18 M=1.0 
C2574 40 338  49.5477E-18 M=1.0 
C2575 40 279  159.3576E-18 M=1.0 
C2576 40 278  142.7994E-18 M=1.0 
C2577 40 240  29.40525E-18 M=1.0 
C2578 40 238  66.5775E-18 M=1.0 
C2579 40 236  44.8083E-18 M=1.0 
C2580 40 226  85.7952E-18 M=1.0 
C2581 40 224  64.755E-18 M=1.0 
C2582 40 222  84.7629E-18 M=1.0 
C2583 40 221  84.7629E-18 M=1.0 
C2584 40 220  85.7952E-18 M=1.0 
C2585 40 218  64.755E-18 M=1.0 
C2586 40 216  144.58275E-18 M=1.0 
C2587 40 215  84.7629E-18 M=1.0 
C2588 40 214  85.7952E-18 M=1.0 
C2589 40 212  64.755E-18 M=1.0 
C2590 40 210  84.7629E-18 M=1.0 
C2591 40 209  89.64945E-18 M=1.0 
C2592 40 208  85.7952E-18 M=1.0 
C2593 40 206  64.755E-18 M=1.0 
C2594 40 204  86.9256E-18 M=1.0 
C2595 40 203  143.2917E-18 M=1.0 
C2596 40 200  269.48295E-18 M=1.0 
C2597 40 199  292.105125E-18 M=1.0 
C2598 40 198  49.5477E-18 M=1.0 
C2599 40 196  49.5477E-18 M=1.0 
C2600 40 187  109.08405E-18 M=1.0 
C2601 40 180  84.1608E-18 M=1.0 
C2602 40 179  84.1608E-18 M=1.0 
C2603 40 174  196.8075E-18 M=1.0 
C2604 40 173  100.719E-18 M=1.0 
C2605 40 166  49.5477E-18 M=1.0 
C2606 40 165  58.6386E-18 M=1.0 
C2607 40 144  49.5477E-18 M=1.0 
C2608 40 143  58.6386000000001E-18 M=1.0 
C2609 40 142  49.5477E-18 M=1.0 
C2610 40 134  58.6386000000001E-18 M=1.0 
C2611 40 133  58.6386E-18 M=1.0 
C2612 40 113  58.6386000000001E-18 M=1.0 
C2613 40 112  67.00365E-18 M=1.0 
C2614 40 102  84.1608E-18 M=1.0 
C2615 40 101  20.5659E-18 M=1.0 
C2616 38 245  49.5477E-18 M=1.0 
C2617 38 40  99.0954000000001E-18 M=1.0 
C2618 37 240  21.0402E-18 M=1.0 
C2619 37 238  21.0402E-18 M=1.0 
C2620 37 236  43.7148E-18 M=1.0 
C2621 37 235  132.7959E-18 M=1.0 
C2622 37 165  58.6386E-18 M=1.0 
C2623 37 143  58.6386000000001E-18 M=1.0 
C2624 37 142  49.5477E-18 M=1.0 
C2625 37 133  58.6386E-18 M=1.0 
C2626 37 112  58.6386000000001E-18 M=1.0 
C2627 37 40  42.0804E-18 M=1.0 
C2628 29 316  24.77385E-18 M=1.0 
C2629 29 273  58.6386E-18 M=1.0 
C2630 29 272  60.143175E-18 M=1.0 
C2631 29 187  26.342775E-18 M=1.0 
C2632 29 40  58.6386E-18 M=1.0 
C2633 28 222  58.6386E-18 M=1.0 
C2634 28 221  58.6386E-18 M=1.0 
C2635 28 40  58.6386E-18 M=1.0 
C2636 27 227  58.6386E-18 M=1.0 
C2637 26 40  84.1608E-18 M=1.0 
C2638 25 222  84.1608E-18 M=1.0 
C2639 25 209  21.0402E-18 M=1.0 
C2640 25 40  84.1608E-18 M=1.0 
C2641 7 245  49.5477E-18 M=1.0 
C2642 GD 590  237.7278E-18 M=1.0 
C2643 GD 245  363.1959E-18 M=1.0 
C2644 GD 227  2.8839123E-15 M=1.0 
C2645 GD 222  2.6928711E-15 M=1.0 
C2646 GD 221  261.3168E-18 M=1.0 
C2647 GD 209  1.3221216E-15 M=1.0 
C2648 GD 40  4.6143963E-15 M=1.0 
C2649 GD 37  965.2401E-18 M=1.0 
C2650 GD 29  2.83710105E-15 M=1.0 
C2651 A0ININ 227  24.77385E-18 M=1.0 
C2652 A6B4 227  188.5473E-18 M=1.0 
C2653 A6B4 170  71.172E-18 M=1.0 
C2654 VD 245  199.3509E-18 M=1.0 
C2655 VD 190  1.2955374E-15 M=1.0 
C2656 VD 185  508.9086E-18 M=1.0 
C2657 VD 170  1.0513368E-15 M=1.0 
C2658 VD 40  630.63225E-18 M=1.0 
C2659 VD 29  77.09805E-18 M=1.0 
C2660 A7B3 170  541.20645E-18 M=1.0 
C2661 GD 423  238.8528E-18 M=1.0 
C2662 GD 419  238.8528E-18 M=1.0 
C2663 GD 346  188.568E-18 M=1.0 
C2664 GD 163  31.8208500000004E-18 M=1.0 
C2665 GD 162  31.8208500000001E-18 M=1.0 
C2666 GD 161  31.8208499999999E-18 M=1.0 
C2667 GD 160  31.82085E-18 M=1.0 
C2668 GD 159  31.82085E-18 M=1.0 
C2669 GD 158  31.82085E-18 M=1.0 
C2670 GD 157  31.82085E-18 M=1.0 
C2671 GD 156  31.8208499999999E-18 M=1.0 
C2672 GD 129  31.82085E-18 M=1.0 
C2673 GD 115  248.2812E-18 M=1.0 
C2674 VD 431  113.1408E-18 M=1.0 
C2675 VD 419  113.1408E-18 M=1.0 
C2676 VD 338  295.423200000001E-18 M=1.0 
C2677 VD 187  40.0706999999999E-18 M=1.0 
C2678 VD 163  32.6065499999999E-18 M=1.0 
C2679 VD 162  32.6065499999999E-18 M=1.0 
C2680 VD 161  32.6065500000003E-18 M=1.0 
C2681 VD 160  32.6065500000001E-18 M=1.0 
C2682 VD 159  32.6065499999999E-18 M=1.0 
C2683 VD 158  32.60655E-18 M=1.0 
C2684 VD 157  32.6065499999999E-18 M=1.0 
C2685 VD 156  32.6065500000001E-18 M=1.0 
C2686 VD 130  32.6065500000003E-18 M=1.0 
C2687 VD 40  74.6415E-18 M=1.0 
C2688 VD 26  53.4276000000001E-18 M=1.0 
C2689 362 419  75.2328E-18 M=1.0 
C2690 358 419  75.2328E-18 M=1.0 
C2691 354 419  75.2328E-18 M=1.0 
C2692 350 419  75.2328E-18 M=1.0 
C2693 346 419  75.2328E-18 M=1.0 
C2694 342 419  75.2328E-18 M=1.0 
C2695 338 419  75.2328E-18 M=1.0 
C2696 163 419  75.2328E-18 M=1.0 
C2697 162 419  75.2328E-18 M=1.0 
C2698 161 419  75.2328E-18 M=1.0 
C2699 160 419  75.2328E-18 M=1.0 
C2700 159 419  75.2328E-18 M=1.0 
C2701 158 419  75.2328E-18 M=1.0 
C2702 157 419  75.2328E-18 M=1.0 
C2703 156 419  75.2328E-18 M=1.0 
C2704 40 187  454.8447E-18 M=1.0 
C2705 GD 419  3.73691879999999E-15 M=1.0 
C2706 GD 358  316.703699999999E-18 M=1.0 
C2707 GD 350  316.7037E-18 M=1.0 
C2708 GD 166  133.0416E-18 M=1.0 
C2709 GD 165  133.0416E-18 M=1.0 
C2710 GD 164  136.2294E-18 M=1.0 
C2711 GD 163  78.5412E-18 M=1.0 
C2712 GD 162  78.5412E-18 M=1.0 
C2713 GD 161  78.5412E-18 M=1.0 
C2714 GD 160  78.5412E-18 M=1.0 
C2715 GD 159  78.5412E-18 M=1.0 
C2716 GD 158  78.5412E-18 M=1.0 
C2717 GD 157  78.5412E-18 M=1.0 
C2718 GD 156  78.5412E-18 M=1.0 
C2719 A0ININ 419  75.2328E-18 M=1.0 
C2720 VD 338  193.7304E-18 M=1.0 
C2721 VD 224  30.4272E-18 M=1.0 
C2722 VD 187  30.4272E-18 M=1.0 
C2723 VD 169  34.2306E-18 M=1.0 
C2724 VD 168  34.2306E-18 M=1.0 
C2725 VD 167  34.2306E-18 M=1.0 
C2726 VD 166  34.2306E-18 M=1.0 
C2727 VD 165  34.2306E-18 M=1.0 
C2728 VD 164  34.2306E-18 M=1.0 
C2729 VD 163  56.0232E-18 M=1.0 
C2730 VD 162  56.0232E-18 M=1.0 
C2731 VD 161  56.0232E-18 M=1.0 
C2732 VD 160  56.0232E-18 M=1.0 
C2733 VD 159  56.0232E-18 M=1.0 
C2734 VD 158  56.0232E-18 M=1.0 
C2735 VD 157  56.0232E-18 M=1.0 
C2736 VD 156  56.0232E-18 M=1.0 
C2737 VD 40  109.8144E-18 M=1.0 
C2738 VD A6B4  34.2306E-18 M=1.0 
C2739 A7B4 GD  60.6456E-18 M=1.0 
C2740 346 431  34.9776E-18 M=1.0 
C2741 346 427  34.9776E-18 M=1.0 
C2742 346 423  34.9776E-18 M=1.0 
C2743 187 799  68.7384E-18 M=1.0 
C2744 169 419  1.8841248E-15 M=1.0 
C2745 138 346  65.5065E-18 M=1.0 
C2746 130 346  100.9458E-18 M=1.0 
C2747 115 799  34.9776E-18 M=1.0 
C2748 115 187  127.7451E-18 M=1.0 
C2749 106 346  65.5065E-18 M=1.0 
C2750 103 187  139.9104E-18 M=1.0 
C2751 98 346  100.9458E-18 M=1.0 
C2752 40 799  34.9776E-18 M=1.0 
C2753 40 187  65.0448E-18 M=1.0 
C2754 40 115  104.9328E-18 M=1.0 
C2755 30 346  65.5065E-18 M=1.0 
C2756 28 419  34.9776E-18 M=1.0 
C2757 28 166  55.2771E-18 M=1.0 
C2758 28 158  90.8703E-18 M=1.0 
C2759 26 226  204.9552E-18 M=1.0 
C2760 22 346  100.9458E-18 M=1.0 
C2761 GD 133  3.0400875E-15 M=1.0 
C2762 A6B4 GD  5.2574733E-15 M=1.0 
C2763 VD 346  3.74032035E-15 M=1.0 
C2764 A7B4 GD  12.4435998E-15 M=1.0 
C2765 342 346  104.6088E-18 M=1.0 
C2766 168 431  37.6677E-18 M=1.0 
C2767 168 427  37.6677E-18 M=1.0 
C2768 168 423  37.6677E-18 M=1.0 
C2769 168 419  22.0518E-18 M=1.0 
C2770 168 169  199.6713E-18 M=1.0 
C2771 167 419  645.86565E-18 M=1.0 
C2772 159 167  251.3835E-18 M=1.0 
C2773 158 167  119.7549E-18 M=1.0 
C2774 157 167  119.7549E-18 M=1.0 
C2775 156 167  119.7549E-18 M=1.0 
C2776 137 346  52.3044E-18 M=1.0 
C2777 137 169  104.6088E-18 M=1.0 
C2778 136 346  52.3044E-18 M=1.0 
C2779 136 168  104.6088E-18 M=1.0 
C2780 134 431  37.6677E-18 M=1.0 
C2781 134 427  37.6677E-18 M=1.0 
C2782 134 423  37.6677E-18 M=1.0 
C2783 134 358  52.3044E-18 M=1.0 
C2784 134 354  52.3044E-18 M=1.0 
C2785 134 350  52.3044E-18 M=1.0 
C2786 134 346  52.3044E-18 M=1.0 
C2787 134 342  52.3044E-18 M=1.0 
C2788 134 338  52.3044E-18 M=1.0 
C2789 134 137  52.3044E-18 M=1.0 
C2790 134 136  52.3044E-18 M=1.0 
C2791 133 431  37.6677E-18 M=1.0 
C2792 133 427  37.6677E-18 M=1.0 
C2793 133 423  37.6677E-18 M=1.0 
C2794 133 362  52.3044E-18 M=1.0 
C2795 133 358  52.3044E-18 M=1.0 
C2796 133 354  52.3044E-18 M=1.0 
C2797 133 350  52.3044E-18 M=1.0 
C2798 133 346  52.3044E-18 M=1.0 
C2799 133 342  52.3044E-18 M=1.0 
C2800 133 338  52.3044E-18 M=1.0 
C2801 133 137  52.3044E-18 M=1.0 
C2802 133 136  52.3044E-18 M=1.0 
C2803 105 346  52.3044E-18 M=1.0 
C2804 104 346  52.3044E-18 M=1.0 
C2805 104 134  52.3044E-18 M=1.0 
C2806 104 133  52.3044E-18 M=1.0 
C2807 103 346  52.3044E-18 M=1.0 
C2808 103 187  69.156E-18 M=1.0 
C2809 101 346  52.3044E-18 M=1.0 
C2810 40 187  43.9335E-18 M=1.0 
C2811 29 799  52.3044E-18 M=1.0 
C2812 29 423  37.6677E-18 M=1.0 
C2813 29 419  37.6677E-18 M=1.0 
C2814 29 362  52.3044E-18 M=1.0 
C2815 29 346  52.3044E-18 M=1.0 
C2816 29 115  270.222525E-18 M=1.0 
C2817 29 40  52.3044E-18 M=1.0 
C2818 28 167  52.3044E-18 M=1.0 
C2819 28 134  52.3044E-18 M=1.0 
C2820 28 133  52.3044E-18 M=1.0 
C2821 27 346  52.3044E-18 M=1.0 
C2822 27 134  52.3044E-18 M=1.0 
C2823 27 133  52.3044E-18 M=1.0 
C2824 26 346  52.3044E-18 M=1.0 
C2825 26 187  52.3044E-18 M=1.0 
C2826 26 169  52.3044E-18 M=1.0 
C2827 26 168  52.3044E-18 M=1.0 
C2828 26 134  52.3044E-18 M=1.0 
C2829 26 133  52.3044E-18 M=1.0 
C2830 26 29  52.3044E-18 M=1.0 
C2831 25 167  52.3044E-18 M=1.0 
C2832 GD 187  255.82005E-18 M=1.0 
C2833 GD 167  3.8674494E-15 M=1.0 
C2834 GD 101  6.7634424E-15 M=1.0 
C2835 A0ININ 29  52.3044E-18 M=1.0 
C2836 A6B4 431  37.6677E-18 M=1.0 
C2837 A6B4 427  37.6677E-18 M=1.0 
C2838 A6B4 423  37.6677E-18 M=1.0 
C2839 A6B4 419  37.6677E-18 M=1.0 
C2840 A6B4 137  52.3044E-18 M=1.0 
C2841 A6B4 136  52.3044E-18 M=1.0 
C2842 A6B4 134  52.3044E-18 M=1.0 
C2843 A6B4 133  52.3044E-18 M=1.0 
C2844 A6B4 104  52.3044E-18 M=1.0 
C2845 A6B4 103  52.3044E-18 M=1.0 
C2846 A6B4 101  52.3044E-18 M=1.0 
C2847 A6B4 29  52.3044E-18 M=1.0 
C2848 A6B4 27  52.3044E-18 M=1.0 
C2849 A6B4 26  52.3044E-18 M=1.0 
C2850 A6B4 GD  3.682426275E-15 M=1.0 
C2851 VD 187  162.6723E-18 M=1.0 
C2852 VD 167  642.050325E-18 M=1.0 
C2853 VD 165  593.622675E-18 M=1.0 
C2854 A7B4 431  37.6677E-18 M=1.0 
C2855 A7B4 427  37.6677E-18 M=1.0 
C2856 A7B4 423  37.6677E-18 M=1.0 
C2857 A7B4 419  37.6677E-18 M=1.0 
C2858 A7B4 137  52.3044E-18 M=1.0 
C2859 A7B4 136  52.3044E-18 M=1.0 
C2860 A7B4 134  52.3044E-18 M=1.0 
C2861 A7B4 133  52.3044E-18 M=1.0 
C2862 A7B4 104  52.3044E-18 M=1.0 
C2863 A7B4 103  52.3044E-18 M=1.0 
C2864 A7B4 101  52.3044E-18 M=1.0 
C2865 A7B4 29  52.3044E-18 M=1.0 
C2866 A7B4 27  52.3044E-18 M=1.0 
C2867 A7B4 26  52.3044E-18 M=1.0 
C2868 A7B4 GD  3.1949757E-15 M=1.0 
C2869 362 419  133.7067E-18 M=1.0 
C2870 358 419  125.2908E-18 M=1.0 
C2871 354 419  129.49875E-18 M=1.0 
C2872 350 419  125.2908E-18 M=1.0 
C2873 346 431  129.49875E-18 M=1.0 
C2874 346 427  129.49875E-18 M=1.0 
C2875 346 423  129.49875E-18 M=1.0 
C2876 346 419  129.49875E-18 M=1.0 
C2877 342 419  129.49875E-18 M=1.0 
C2878 338 419  125.2908E-18 M=1.0 
C2879 187 191  44.6058E-18 M=1.0 
C2880 185 187  87.7131E-18 M=1.0 
C2881 137 419  49.5477E-18 M=1.0 
C2882 40 191  270.13455E-18 M=1.0 
C2883 29 191  58.6386E-18 M=1.0 
C2884 29 185  58.6386E-18 M=1.0 
C2885 29 147  58.6386E-18 M=1.0 
C2886 29 146  58.6386E-18 M=1.0 
C2887 29 116  58.6386E-18 M=1.0 
C2888 29 115  58.6386E-18 M=1.0 
C2889 28 419  49.5477E-18 M=1.0 
C2890 26 419  49.5477E-18 M=1.0 
C2891 25 419  49.5477E-18 M=1.0 
C2892 GD 419  1.8665487E-15 M=1.0 
C2893 A0ININ 419  142.1226E-18 M=1.0 
C2894 VD 419  1.0404432E-15 M=1.0 
C2895 A7B3 29  58.6386E-18 M=1.0 
C2896 GD 431  238.8528E-18 M=1.0 
C2897 GD 338  188.568E-18 M=1.0 
C2898 GD 132  31.8208500000004E-18 M=1.0 
C2899 GD 131  31.8208500000001E-18 M=1.0 
C2900 GD 130  31.8208499999999E-18 M=1.0 
C2901 GD 100  31.8208500000004E-18 M=1.0 
C2902 GD 99  31.8208500000001E-18 M=1.0 
C2903 GD 98  31.8208499999999E-18 M=1.0 
C2904 GD 24  31.8208500000004E-18 M=1.0 
C2905 GD 23  31.8208500000001E-18 M=1.0 
C2906 GD 22  31.8208499999999E-18 M=1.0 
C2907 VD 423  113.1408E-18 M=1.0 
C2908 VD 346  295.423200000001E-18 M=1.0 
C2909 VD 132  32.6065499999999E-18 M=1.0 
C2910 VD 131  32.6065499999999E-18 M=1.0 
C2911 VD 100  32.6065499999999E-18 M=1.0 
C2912 VD 99  32.6065499999999E-18 M=1.0 
C2913 VD 98  32.6065500000003E-18 M=1.0 
C2914 VD 24  32.6065499999999E-18 M=1.0 
C2915 VD 23  32.6065499999999E-18 M=1.0 
C2916 VD 22  32.6065500000003E-18 M=1.0 
C2917 346 431  75.2328E-18 M=1.0 
C2918 346 427  75.2328E-18 M=1.0 
C2919 346 423  75.2328E-18 M=1.0 
C2920 342 431  75.2328E-18 M=1.0 
C2921 342 427  75.2328E-18 M=1.0 
C2922 342 423  75.2328E-18 M=1.0 
C2923 338 431  75.2328E-18 M=1.0 
C2924 338 427  75.2328E-18 M=1.0 
C2925 338 423  75.2328E-18 M=1.0 
C2926 132 423  75.2328E-18 M=1.0 
C2927 131 423  75.2328E-18 M=1.0 
C2928 130 423  75.2328E-18 M=1.0 
C2929 100 427  75.2328E-18 M=1.0 
C2930 99 427  75.2328E-18 M=1.0 
C2931 98 427  75.2328E-18 M=1.0 
C2932 24 431  75.2328E-18 M=1.0 
C2933 23 431  75.2328E-18 M=1.0 
C2934 22 431  75.2328E-18 M=1.0 
C2935 GD 431  4.0297806E-15 M=1.0 
C2936 GD 423  3.9594177E-15 M=1.0 
C2937 GD 346  316.7037E-18 M=1.0 
C2938 GD 140  60.6456E-18 M=1.0 
C2939 GD 139  136.2294E-18 M=1.0 
C2940 GD 132  78.5412E-18 M=1.0 
C2941 GD 131  78.5412E-18 M=1.0 
C2942 GD 130  78.5412E-18 M=1.0 
C2943 GD 108  60.6456E-18 M=1.0 
C2944 GD 100  78.5412E-18 M=1.0 
C2945 GD 99  78.5412E-18 M=1.0 
C2946 GD 98  78.5412E-18 M=1.0 
C2947 GD 32  60.6456E-18 M=1.0 
C2948 GD 24  78.5412E-18 M=1.0 
C2949 GD 23  78.5412E-18 M=1.0 
C2950 GD 22  78.5412E-18 M=1.0 
C2951 VD 346  193.7304E-18 M=1.0 
C2952 VD 139  34.2306E-18 M=1.0 
C2953 VD 138  34.2306E-18 M=1.0 
C2954 VD 132  56.0232E-18 M=1.0 
C2955 VD 131  56.0232E-18 M=1.0 
C2956 VD 130  56.0232E-18 M=1.0 
C2957 VD 107  34.2306E-18 M=1.0 
C2958 VD 106  34.2306E-18 M=1.0 
C2959 VD 100  56.0232E-18 M=1.0 
C2960 VD 99  56.0232E-18 M=1.0 
C2961 VD 98  56.0232E-18 M=1.0 
C2962 VD 31  34.2306E-18 M=1.0 
C2963 VD 30  34.2306E-18 M=1.0 
C2964 VD 24  56.0232E-18 M=1.0 
C2965 VD 23  56.0232E-18 M=1.0 
C2966 VD 22  56.0232E-18 M=1.0 
C2967 342 431  34.9776E-18 M=1.0 
C2968 342 427  34.9776E-18 M=1.0 
C2969 342 423  34.9776E-18 M=1.0 
C2970 338 431  34.9776E-18 M=1.0 
C2971 338 427  34.9776E-18 M=1.0 
C2972 338 423  34.9776E-18 M=1.0 
C2973 140 338  65.5065E-18 M=1.0 
C2974 139 342  65.5065E-18 M=1.0 
C2975 132 338  100.9458E-18 M=1.0 
C2976 131 342  100.9458E-18 M=1.0 
C2977 108 338  65.5065E-18 M=1.0 
C2978 107 342  65.5065E-18 M=1.0 
C2979 100 338  100.9458E-18 M=1.0 
C2980 99 342  100.9458E-18 M=1.0 
C2981 32 338  65.5065E-18 M=1.0 
C2982 31 342  65.5065E-18 M=1.0 
C2983 24 338  100.9458E-18 M=1.0 
C2984 23 342  100.9458E-18 M=1.0 
C2985 GD 140  12.1988583E-15 M=1.0 
C2986 GD 108  14.9018922E-15 M=1.0 
C2987 GD 105  9.47950829999999E-15 M=1.0 
C2988 GD 104  5.025213E-15 M=1.0 
C2989 GD 103  4.9110003E-15 M=1.0 
C2990 GD 32  16.8870177E-15 M=1.0 
C2991 GD 29  6.2706753E-15 M=1.0 
C2992 GD 26  7.0429131E-15 M=1.0 
C2993 VD 342  4.8048174E-15 M=1.0 
C2994 VD 338  3.6842544E-15 M=1.0 
C2995 140 431  37.6677E-18 M=1.0 
C2996 140 427  37.6677E-18 M=1.0 
C2997 140 423  37.6677E-18 M=1.0 
C2998 139 431  37.6677E-18 M=1.0 
C2999 139 427  37.6677E-18 M=1.0 
C3000 139 423  37.6677E-18 M=1.0 
C3001 139 338  52.3044E-18 M=1.0 
C3002 138 431  37.6677E-18 M=1.0 
C3003 138 427  37.6677E-18 M=1.0 
C3004 138 423  37.6677E-18 M=1.0 
C3005 138 342  52.3044E-18 M=1.0 
C3006 138 338  52.3044E-18 M=1.0 
C3007 137 342  52.3044E-18 M=1.0 
C3008 137 338  52.3044E-18 M=1.0 
C3009 136 427  37.6677E-18 M=1.0 
C3010 136 423  37.6677E-18 M=1.0 
C3011 136 342  52.3044E-18 M=1.0 
C3012 136 338  52.3044E-18 M=1.0 
C3013 136 137  135.1404E-18 M=1.0 
C3014 108 431  37.6677E-18 M=1.0 
C3015 108 427  37.6677E-18 M=1.0 
C3016 107 431  37.6677E-18 M=1.0 
C3017 107 427  37.6677E-18 M=1.0 
C3018 107 338  52.3044E-18 M=1.0 
C3019 106 431  37.6677E-18 M=1.0 
C3020 106 427  37.6677E-18 M=1.0 
C3021 106 342  52.3044E-18 M=1.0 
C3022 106 338  52.3044E-18 M=1.0 
C3023 105 431  37.6677E-18 M=1.0 
C3024 105 427  37.6677E-18 M=1.0 
C3025 105 342  52.3044E-18 M=1.0 
C3026 105 338  52.3044E-18 M=1.0 
C3027 104 431  37.6677E-18 M=1.0 
C3028 104 427  37.6677E-18 M=1.0 
C3029 104 342  52.3044E-18 M=1.0 
C3030 104 338  52.3044E-18 M=1.0 
C3031 104 140  52.3044E-18 M=1.0 
C3032 104 139  52.3044E-18 M=1.0 
C3033 104 138  52.3044E-18 M=1.0 
C3034 103 431  37.6677E-18 M=1.0 
C3035 103 342  52.3044E-18 M=1.0 
C3036 103 338  52.3044E-18 M=1.0 
C3037 103 140  52.3044E-18 M=1.0 
C3038 103 139  52.3044E-18 M=1.0 
C3039 103 138  52.3044E-18 M=1.0 
C3040 103 104  52.3044E-18 M=1.0 
C3041 101 431  37.6677E-18 M=1.0 
C3042 101 427  37.6677E-18 M=1.0 
C3043 101 342  52.3044E-18 M=1.0 
C3044 101 338  52.3044E-18 M=1.0 
C3045 101 140  52.3044E-18 M=1.0 
C3046 101 139  52.3044E-18 M=1.0 
C3047 101 138  52.3044E-18 M=1.0 
C3048 101 104  52.3044E-18 M=1.0 
C3049 32 431  37.6677E-18 M=1.0 
C3050 31 431  37.6677E-18 M=1.0 
C3051 31 338  52.3044E-18 M=1.0 
C3052 30 431  37.6677E-18 M=1.0 
C3053 30 342  52.3044E-18 M=1.0 
C3054 30 338  52.3044E-18 M=1.0 
C3055 29 431  37.6677E-18 M=1.0 
C3056 29 342  52.3044E-18 M=1.0 
C3057 29 338  52.3044E-18 M=1.0 
C3058 29 140  52.3044E-18 M=1.0 
C3059 29 139  52.3044E-18 M=1.0 
C3060 29 138  52.3044E-18 M=1.0 
C3061 29 108  52.3044E-18 M=1.0 
C3062 29 107  52.3044E-18 M=1.0 
C3063 29 106  52.3044E-18 M=1.0 
C3064 29 105  52.3044E-18 M=1.0 
C3065 29 103  104.6088E-18 M=1.0 
C3066 27 431  37.6677E-18 M=1.0 
C3067 27 342  52.3044E-18 M=1.0 
C3068 27 338  52.3044E-18 M=1.0 
C3069 27 140  52.3044E-18 M=1.0 
C3070 27 139  52.3044E-18 M=1.0 
C3071 27 138  52.3044E-18 M=1.0 
C3072 27 108  52.3044E-18 M=1.0 
C3073 27 107  52.3044E-18 M=1.0 
C3074 27 106  52.3044E-18 M=1.0 
C3075 27 105  52.3044E-18 M=1.0 
C3076 27 104  104.6088E-18 M=1.0 
C3077 27 103  52.3044E-18 M=1.0 
C3078 27 101  52.3044E-18 M=1.0 
C3079 26 342  52.3044E-18 M=1.0 
C3080 26 338  52.3044E-18 M=1.0 
C3081 26 140  52.3044E-18 M=1.0 
C3082 26 139  52.3044E-18 M=1.0 
C3083 26 138  52.3044E-18 M=1.0 
C3084 26 137  52.3044E-18 M=1.0 
C3085 26 136  52.3044E-18 M=1.0 
C3086 26 108  52.3044E-18 M=1.0 
C3087 26 107  52.3044E-18 M=1.0 
C3088 26 106  52.3044E-18 M=1.0 
C3089 26 105  52.3044E-18 M=1.0 
C3090 26 104  52.3044E-18 M=1.0 
C3091 26 101  52.3044E-18 M=1.0 
C3092 GD 139  4.534803675E-15 M=1.0 
C3093 GD 136  3.5749773E-15 M=1.0 
C3094 GD 106  5.8168314E-15 M=1.0 
C3095 GD 104  5.333340375E-15 M=1.0 
C3096 GD 103  5.84110935E-15 M=1.0 
C3097 GD 32  7.7952951E-15 M=1.0 
C3098 GD 29  5.8353408E-15 M=1.0 
C3099 GD 27  7.120480275E-15 M=1.0 
C3100 VD 139  302.386275E-18 M=1.0 
C3101 VD 107  267.514875E-18 M=1.0 
C3102 VD 106  300.798E-18 M=1.0 
C3103 342 431  129.49875E-18 M=1.0 
C3104 342 427  129.49875E-18 M=1.0 
C3105 342 423  129.49875E-18 M=1.0 
C3106 338 431  125.2908E-18 M=1.0 
C3107 338 427  125.2908E-18 M=1.0 
C3108 338 423  125.2908E-18 M=1.0 
C3109 26 427  49.5477E-18 M=1.0 
C3110 26 423  49.5477E-18 M=1.0 
C3111 GD 427  2.0483343E-15 M=1.0 
C3112 GD 427  238.8528E-18 M=1.0 
C3113 GD 128  31.82085E-18 M=1.0 
C3114 GD 127  31.82085E-18 M=1.0 
C3115 GD 126  31.82085E-18 M=1.0 
C3116 GD 125  31.8208499999999E-18 M=1.0 
C3117 GD 97  31.82085E-18 M=1.0 
C3118 GD 96  31.82085E-18 M=1.0 
C3119 GD 95  31.82085E-18 M=1.0 
C3120 GD 94  31.82085E-18 M=1.0 
C3121 GD 93  31.8208499999999E-18 M=1.0 
C3122 GD 21  31.82085E-18 M=1.0 
C3123 GD 20  31.82085E-18 M=1.0 
C3124 GD 19  31.82085E-18 M=1.0 
C3125 GD 18  31.82085E-18 M=1.0 
C3126 GD 17  31.8208499999999E-18 M=1.0 
C3127 VD 427  113.1408E-18 M=1.0 
C3128 VD 362  295.423200000001E-18 M=1.0 
C3129 VD 358  295.423200000004E-18 M=1.0 
C3130 VD 354  295.423200000001E-18 M=1.0 
C3131 VD 129  32.6065500000001E-18 M=1.0 
C3132 VD 128  32.6065499999999E-18 M=1.0 
C3133 VD 127  32.60655E-18 M=1.0 
C3134 VD 126  32.6065499999999E-18 M=1.0 
C3135 VD 125  32.6065500000001E-18 M=1.0 
C3136 VD 97  32.6065500000001E-18 M=1.0 
C3137 VD 96  32.6065499999999E-18 M=1.0 
C3138 VD 95  32.60655E-18 M=1.0 
C3139 VD 94  32.6065499999999E-18 M=1.0 
C3140 VD 93  32.6065500000001E-18 M=1.0 
C3141 VD 21  32.6065500000001E-18 M=1.0 
C3142 VD 20  32.6065499999999E-18 M=1.0 
C3143 VD 19  32.60655E-18 M=1.0 
C3144 VD 18  32.6065499999999E-18 M=1.0 
C3145 VD 17  32.6065500000001E-18 M=1.0 
C3146 VD A0ININ  295.423200000001E-18 M=1.0 
C3147 362 431  75.2328E-18 M=1.0 
C3148 362 427  75.2328E-18 M=1.0 
C3149 362 423  75.2328E-18 M=1.0 
C3150 358 431  75.2328E-18 M=1.0 
C3151 358 427  75.2328E-18 M=1.0 
C3152 358 423  75.2328E-18 M=1.0 
C3153 354 431  75.2328E-18 M=1.0 
C3154 354 427  75.2328E-18 M=1.0 
C3155 354 423  75.2328E-18 M=1.0 
C3156 350 431  75.2328E-18 M=1.0 
C3157 350 427  75.2328E-18 M=1.0 
C3158 350 423  75.2328E-18 M=1.0 
C3159 129 423  75.2328E-18 M=1.0 
C3160 128 423  75.2328E-18 M=1.0 
C3161 127 423  75.2328E-18 M=1.0 
C3162 126 423  75.2328E-18 M=1.0 
C3163 125 423  75.2328E-18 M=1.0 
C3164 97 427  75.2328E-18 M=1.0 
C3165 96 427  75.2328E-18 M=1.0 
C3166 95 427  75.2328E-18 M=1.0 
C3167 94 427  75.2328E-18 M=1.0 
C3168 93 427  75.2328E-18 M=1.0 
C3169 21 431  75.2328E-18 M=1.0 
C3170 20 431  75.2328E-18 M=1.0 
C3171 19 431  75.2328E-18 M=1.0 
C3172 18 431  75.2328E-18 M=1.0 
C3173 17 431  75.2328E-18 M=1.0 
C3174 GD 427  3.5809794E-15 M=1.0 
C3175 GD 354  316.7037E-18 M=1.0 
C3176 GD 129  78.5412E-18 M=1.0 
C3177 GD 128  78.5412E-18 M=1.0 
C3178 GD 127  78.5412E-18 M=1.0 
C3179 GD 126  78.5412E-18 M=1.0 
C3180 GD 125  78.5412E-18 M=1.0 
C3181 GD 105  60.6456E-18 M=1.0 
C3182 GD 104  60.6456E-18 M=1.0 
C3183 GD 103  60.6456E-18 M=1.0 
C3184 GD 102  133.0416E-18 M=1.0 
C3185 GD 97  78.5412E-18 M=1.0 
C3186 GD 96  78.5412E-18 M=1.0 
C3187 GD 95  78.5412E-18 M=1.0 
C3188 GD 94  78.5412E-18 M=1.0 
C3189 GD 93  78.5412E-18 M=1.0 
C3190 GD 29  60.6456E-18 M=1.0 
C3191 GD 25  60.6456E-18 M=1.0 
C3192 GD 21  78.5412E-18 M=1.0 
C3193 GD 20  78.5412E-18 M=1.0 
C3194 GD 19  78.5412E-18 M=1.0 
C3195 GD 18  78.5412E-18 M=1.0 
C3196 GD 17  78.5412E-18 M=1.0 
C3197 A0ININ 431  75.2328E-18 M=1.0 
C3198 A0ININ 427  75.2328E-18 M=1.0 
C3199 A0ININ 423  75.2328E-18 M=1.0 
C3200 VD 137  34.2306E-18 M=1.0 
C3201 VD 136  34.2306E-18 M=1.0 
C3202 VD 135  34.2306E-18 M=1.0 
C3203 VD 134  34.2306E-18 M=1.0 
C3204 VD 133  34.2306E-18 M=1.0 
C3205 VD 129  56.0232E-18 M=1.0 
C3206 VD 128  56.0232E-18 M=1.0 
C3207 VD 127  56.0232E-18 M=1.0 
C3208 VD 126  56.0232E-18 M=1.0 
C3209 VD 125  56.0232E-18 M=1.0 
C3210 VD 103  106.6266E-18 M=1.0 
C3211 VD 102  34.2306E-18 M=1.0 
C3212 VD 101  34.2306E-18 M=1.0 
C3213 VD 97  56.0232E-18 M=1.0 
C3214 VD 96  56.0232E-18 M=1.0 
C3215 VD 95  56.0232E-18 M=1.0 
C3216 VD 94  56.0232E-18 M=1.0 
C3217 VD 93  56.0232E-18 M=1.0 
C3218 VD 28  34.2306E-18 M=1.0 
C3219 VD 27  34.2306E-18 M=1.0 
C3220 VD 26  34.2306E-18 M=1.0 
C3221 VD 21  56.0232E-18 M=1.0 
C3222 VD 20  56.0232E-18 M=1.0 
C3223 VD 19  56.0232E-18 M=1.0 
C3224 VD 18  56.0232E-18 M=1.0 
C3225 VD 17  56.0232E-18 M=1.0 
C3226 362 431  34.9776E-18 M=1.0 
C3227 362 427  90.3762E-18 M=1.0 
C3228 362 423  131.3055E-18 M=1.0 
C3229 358 431  34.9776E-18 M=1.0 
C3230 358 427  34.9776E-18 M=1.0 
C3231 358 423  90.3762E-18 M=1.0 
C3232 354 431  34.9776E-18 M=1.0 
C3233 354 427  34.9776E-18 M=1.0 
C3234 354 423  34.9776E-18 M=1.0 
C3235 350 431  34.9776E-18 M=1.0 
C3236 350 427  34.9776E-18 M=1.0 
C3237 350 423  34.9776E-18 M=1.0 
C3238 137 350  65.5065E-18 M=1.0 
C3239 136 354  65.5065E-18 M=1.0 
C3240 135 358  65.5065E-18 M=1.0 
C3241 134 362  65.5065E-18 M=1.0 
C3242 129 350  100.9458E-18 M=1.0 
C3243 128 354  100.9458E-18 M=1.0 
C3244 127 358  100.9458E-18 M=1.0 
C3245 126 362  100.9458E-18 M=1.0 
C3246 105 350  65.5065E-18 M=1.0 
C3247 104 354  65.5065E-18 M=1.0 
C3248 103 358  65.5065E-18 M=1.0 
C3249 102 362  65.5065E-18 M=1.0 
C3250 97 350  100.9458E-18 M=1.0 
C3251 96 354  100.9458E-18 M=1.0 
C3252 95 358  100.9458E-18 M=1.0 
C3253 94 362  100.9458E-18 M=1.0 
C3254 29 350  65.5065E-18 M=1.0 
C3255 28 427  34.9776E-18 M=1.0 
C3256 28 423  34.9776E-18 M=1.0 
C3257 28 358  104.9328E-18 M=1.0 
C3258 28 354  65.5065E-18 M=1.0 
C3259 28 135  55.2771E-18 M=1.0 
C3260 28 127  90.8703E-18 M=1.0 
C3261 28 103  55.2771E-18 M=1.0 
C3262 28 95  90.8703E-18 M=1.0 
C3263 27 358  65.5065E-18 M=1.0 
C3264 26 362  65.5065E-18 M=1.0 
C3265 21 350  100.9458E-18 M=1.0 
C3266 20 354  100.9458E-18 M=1.0 
C3267 19 358  100.9458E-18 M=1.0 
C3268 18 362  100.9458E-18 M=1.0 
C3269 GD 25  5.8845276E-15 M=1.0 
C3270 A0ININ 133  65.5065E-18 M=1.0 
C3271 A0ININ 125  100.9458E-18 M=1.0 
C3272 A0ININ 101  65.5065E-18 M=1.0 
C3273 A0ININ 93  100.9458E-18 M=1.0 
C3274 A0ININ 25  65.5065E-18 M=1.0 
C3275 A0ININ 17  100.9458E-18 M=1.0 
C3276 358 362  104.6088E-18 M=1.0 
C3277 354 362  104.6088E-18 M=1.0 
C3278 350 358  104.6088E-18 M=1.0 
C3279 350 354  104.6088E-18 M=1.0 
C3280 346 362  104.6088E-18 M=1.0 
C3281 346 358  104.6088E-18 M=1.0 
C3282 346 354  104.6088E-18 M=1.0 
C3283 346 350  104.6088E-18 M=1.0 
C3284 342 358  104.6088E-18 M=1.0 
C3285 342 354  104.6088E-18 M=1.0 
C3286 338 362  104.6088E-18 M=1.0 
C3287 338 358  104.6088E-18 M=1.0 
C3288 338 354  104.6088E-18 M=1.0 
C3289 338 350  104.6088E-18 M=1.0 
C3290 136 350  52.3044E-18 M=1.0 
C3291 127 135  159.85305E-18 M=1.0 
C3292 104 350  52.3044E-18 M=1.0 
C3293 103 354  52.3044E-18 M=1.0 
C3294 103 350  52.3044E-18 M=1.0 
C3295 102 362  104.6088E-18 M=1.0 
C3296 101 362  52.3044E-18 M=1.0 
C3297 101 358  52.3044E-18 M=1.0 
C3298 101 354  52.3044E-18 M=1.0 
C3299 101 350  52.3044E-18 M=1.0 
C3300 94 102  133.89885E-18 M=1.0 
C3301 93 102  140.569425E-18 M=1.0 
C3302 28 103  52.3044E-18 M=1.0 
C3303 28 101  52.3044E-18 M=1.0 
C3304 27 354  52.3044E-18 M=1.0 
C3305 27 350  52.3044E-18 M=1.0 
C3306 27 28  52.3044E-18 M=1.0 
C3307 26 358  52.3044E-18 M=1.0 
C3308 26 354  52.3044E-18 M=1.0 
C3309 26 350  52.3044E-18 M=1.0 
C3310 26 28  52.3044E-18 M=1.0 
C3311 GD 354  2.8680669E-15 M=1.0 
C3312 GD 350  3.43478115E-15 M=1.0 
C3313 GD 346  4.00642335E-15 M=1.0 
C3314 GD 338  5.12999595E-15 M=1.0 
C3315 GD 135  4.2843681E-15 M=1.0 
C3316 GD 102  6.160205475E-15 M=1.0 
C3317 GD 26  5.55783975E-15 M=1.0 
C3318 A0ININ 358  104.6088E-18 M=1.0 
C3319 A0ININ 354  104.6088E-18 M=1.0 
C3320 A0ININ 350  104.6088E-18 M=1.0 
C3321 A0ININ 342  104.6088E-18 M=1.0 
C3322 A0ININ 338  104.6088E-18 M=1.0 
C3323 A0ININ 102  104.6088E-18 M=1.0 
C3324 VD 137  514.8783E-18 M=1.0 
C3325 VD 103  668.6748E-18 M=1.0 
C3326 362 431  133.7067E-18 M=1.0 
C3327 362 427  133.7067E-18 M=1.0 
C3328 362 423  133.7067E-18 M=1.0 
C3329 358 431  125.2908E-18 M=1.0 
C3330 358 427  125.2908E-18 M=1.0 
C3331 358 423  125.2908E-18 M=1.0 
C3332 354 431  129.49875E-18 M=1.0 
C3333 354 427  129.49875E-18 M=1.0 
C3334 354 423  129.49875E-18 M=1.0 
C3335 350 431  125.2908E-18 M=1.0 
C3336 350 427  125.2908E-18 M=1.0 
C3337 350 423  125.2908E-18 M=1.0 
C3338 135 423  329.723325E-18 M=1.0 
C3339 135 362  49.5477E-18 M=1.0 
C3340 135 358  49.5477E-18 M=1.0 
C3341 126 135  44.3223E-18 M=1.0 
C3342 125 135  44.3223E-18 M=1.0 
C3343 102 135  58.6386E-18 M=1.0 
C3344 28 427  49.5477E-18 M=1.0 
C3345 28 423  49.5477E-18 M=1.0 
C3346 25 427  49.5477E-18 M=1.0 
C3347 25 423  49.5477E-18 M=1.0 
C3348 25 135  49.5477E-18 M=1.0 
C3349 GD 431  2.218734E-15 M=1.0 
C3350 GD 423  1.9422927E-15 M=1.0 
C3351 GD 135  690.0156E-18 M=1.0 
C3352 A0ININ 431  142.1226E-18 M=1.0 
C3353 A0ININ 427  142.1226E-18 M=1.0 
C3354 A0ININ 423  142.1226E-18 M=1.0 
C3355 A0ININ 135  49.5477E-18 M=1.0 
C3356 VD 431  1.0404432E-15 M=1.0 
C3357 VD 427  1.0404432E-15 M=1.0 
C3358 VD 423  1.0404432E-15 M=1.0 
C3359 VD 135  465.5493E-18 M=1.0 
C3360 GD 169  282.851999999999E-18 M=1.0 
C3361 GD 168  282.851999999999E-18 M=1.0 
C3362 GD 136  209.781900000001E-18 M=1.0 
C3363 VD 169  53.4276E-18 M=1.0 
C3364 VD 168  53.4276E-18 M=1.0 
C3365 VD 137  40.0707E-18 M=1.0 
C3366 GD 169  133.0416E-18 M=1.0 
C3367 GD 168  133.0416E-18 M=1.0 
C3368 VD 232  30.4272000000001E-18 M=1.0 
C3369 VD 195  30.4271999999999E-18 M=1.0 
C3370 232 816  69.2001E-18 M=1.0 
C3371 195 803  69.2001E-18 M=1.0 
C3372 194 195  69.2001E-18 M=1.0 
C3373 169 816  34.9776E-18 M=1.0 
C3374 168 803  34.9776E-18 M=1.0 
C3375 168 194  34.9776E-18 M=1.0 
C3376 146 168  174.888E-18 M=1.0 
C3377 137 816  34.9776E-18 M=1.0 
C3378 136 803  34.9776E-18 M=1.0 
C3379 136 194  34.9776E-18 M=1.0 
C3380 136 168  174.888E-18 M=1.0 
C3381 A0ININ 431  90.3762E-18 M=1.0 
C3382 A0ININ 427  90.3762E-18 M=1.0 
C3383 A0ININ 423  90.3762E-18 M=1.0 
C3384 A0ININ GD  38.12845095E-15 M=1.0 
C3385 VD 146  689.1111E-18 M=1.0 
C3386 A7B3 GD  6.6947481E-15 M=1.0 
C3387 169 816  52.3044E-18 M=1.0 
C3388 169 431  37.6677E-18 M=1.0 
C3389 169 427  37.6677E-18 M=1.0 
C3390 169 423  37.6677E-18 M=1.0 
C3391 169 419  68.84685E-18 M=1.0 
C3392 169 195  96.408E-18 M=1.0 
C3393 169 194  52.3044E-18 M=1.0 
C3394 168 803  52.3044E-18 M=1.0 
C3395 166 431  37.6677E-18 M=1.0 
C3396 166 427  37.6677E-18 M=1.0 
C3397 166 168  52.3044E-18 M=1.0 
C3398 165 431  37.6677E-18 M=1.0 
C3399 165 427  37.6677E-18 M=1.0 
C3400 165 168  52.3044E-18 M=1.0 
C3401 164 431  37.6677E-18 M=1.0 
C3402 164 427  37.6677E-18 M=1.0 
C3403 164 168  52.3044E-18 M=1.0 
C3404 147 431  37.6677E-18 M=1.0 
C3405 147 427  37.6677E-18 M=1.0 
C3406 147 195  44.1036E-18 M=1.0 
C3407 147 169  52.3044E-18 M=1.0 
C3408 147 168  103.5792E-18 M=1.0 
C3409 146 168  52.3044E-18 M=1.0 
C3410 137 816  52.6203E-18 M=1.0 
C3411 137 431  37.6677E-18 M=1.0 
C3412 137 427  37.6677E-18 M=1.0 
C3413 137 423  37.6677E-18 M=1.0 
C3414 137 419  37.6677E-18 M=1.0 
C3415 137 147  52.3044E-18 M=1.0 
C3416 136 803  52.6203E-18 M=1.0 
C3417 136 431  37.6677E-18 M=1.0 
C3418 136 166  52.3044E-18 M=1.0 
C3419 136 165  52.3044E-18 M=1.0 
C3420 136 164  52.3044E-18 M=1.0 
C3421 136 147  77.9418E-18 M=1.0 
C3422 136 146  52.3044E-18 M=1.0 
C3423 103 427  1.12971285E-15 M=1.0 
C3424 103 423  37.6677E-18 M=1.0 
C3425 103 419  37.6677E-18 M=1.0 
C3426 103 362  52.3044E-18 M=1.0 
C3427 26 423  37.6677E-18 M=1.0 
C3428 26 419  37.6677E-18 M=1.0 
C3429 26 362  52.3044E-18 M=1.0 
C3430 GD 169  2.7963018E-15 M=1.0 
C3431 GD 168  2.90248065E-15 M=1.0 
C3432 GD 166  7.177338E-15 M=1.0 
C3433 GD 147  5.2359264E-15 M=1.0 
C3434 A0ININ 169  52.3044E-18 M=1.0 
C3435 A0ININ 168  52.3044E-18 M=1.0 
C3436 A0ININ 147  104.6088E-18 M=1.0 
C3437 A0ININ 137  52.3044E-18 M=1.0 
C3438 A0ININ 136  52.3044E-18 M=1.0 
C3439 A0ININ 103  52.3044E-18 M=1.0 
C3440 A0ININ 27  52.3044E-18 M=1.0 
C3441 A0ININ 26  52.3044E-18 M=1.0 
C3442 VD 168  313.9407E-18 M=1.0 
C3443 VD 136  377.8434E-18 M=1.0 
C3444 166 431  37.3761E-18 M=1.0 
C3445 166 427  37.3761E-18 M=1.0 
C3446 166 168  49.5477E-18 M=1.0 
C3447 165 431  37.3761E-18 M=1.0 
C3448 165 427  37.3761E-18 M=1.0 
C3449 165 168  49.5477E-18 M=1.0 
C3450 164 431  37.3761E-18 M=1.0 
C3451 164 427  37.3761E-18 M=1.0 
C3452 164 168  49.5477E-18 M=1.0 
C3453 147 423  791.6814E-18 M=1.0 
C3454 147 419  37.3761E-18 M=1.0 
C3455 147 169  58.6386000000001E-18 M=1.0 
C3456 146 431  37.3761E-18 M=1.0 
C3457 146 427  767.74005E-18 M=1.0 
C3458 146 423  37.3761E-18 M=1.0 
C3459 146 419  37.3761E-18 M=1.0 
C3460 146 169  58.6386000000001E-18 M=1.0 
C3461 146 168  58.6386E-18 M=1.0 
C3462 146 147  58.6386E-18 M=1.0 
C3463 137 147  58.6386E-18 M=1.0 
C3464 137 146  58.6386E-18 M=1.0 
C3465 136 166  49.5477E-18 M=1.0 
C3466 136 165  49.5477E-18 M=1.0 
C3467 136 164  49.5477E-18 M=1.0 
C3468 136 146  58.6386E-18 M=1.0 
C3469 134 431  37.3761E-18 M=1.0 
C3470 134 427  37.3761E-18 M=1.0 
C3471 134 423  37.3761E-18 M=1.0 
C3472 134 419  21.8574E-18 M=1.0 
C3473 134 169  49.5477E-18 M=1.0 
C3474 134 168  49.5477E-18 M=1.0 
C3475 134 137  49.5477E-18 M=1.0 
C3476 134 136  49.5477E-18 M=1.0 
C3477 133 431  37.3761E-18 M=1.0 
C3478 133 427  37.3761E-18 M=1.0 
C3479 133 423  37.3761E-18 M=1.0 
C3480 133 419  21.8574E-18 M=1.0 
C3481 133 169  49.5477E-18 M=1.0 
C3482 133 168  49.5477E-18 M=1.0 
C3483 133 137  49.5477E-18 M=1.0 
C3484 133 136  49.5477E-18 M=1.0 
C3485 116 431  37.3761E-18 M=1.0 
C3486 116 362  49.5477E-18 M=1.0 
C3487 116 169  58.6386000000001E-18 M=1.0 
C3488 116 168  58.6386E-18 M=1.0 
C3489 116 147  58.6386E-18 M=1.0 
C3490 116 146  58.6386E-18 M=1.0 
C3491 116 137  58.6386E-18 M=1.0 
C3492 116 136  58.6386E-18 M=1.0 
C3493 104 134  49.5477E-18 M=1.0 
C3494 104 133  49.5477E-18 M=1.0 
C3495 103 431  37.3761E-18 M=1.0 
C3496 103 427  37.3761E-18 M=1.0 
C3497 103 423  37.3761E-18 M=1.0 
C3498 103 419  21.8574E-18 M=1.0 
C3499 103 169  58.6386000000001E-18 M=1.0 
C3500 103 168  49.5477E-18 M=1.0 
C3501 103 147  58.6386E-18 M=1.0 
C3502 103 146  58.6386E-18 M=1.0 
C3503 103 137  58.6386E-18 M=1.0 
C3504 103 136  58.6386E-18 M=1.0 
C3505 103 116  58.6386E-18 M=1.0 
C3506 103 104  58.6386E-18 M=1.0 
C3507 101 431  37.3761E-18 M=1.0 
C3508 101 427  37.3761E-18 M=1.0 
C3509 101 423  37.3761E-18 M=1.0 
C3510 101 419  20.272725E-18 M=1.0 
C3511 101 169  87.67935E-18 M=1.0 
C3512 101 168  49.5477E-18 M=1.0 
C3513 101 137  87.67935E-18 M=1.0 
C3514 101 136  87.67935E-18 M=1.0 
C3515 101 104  49.5477E-18 M=1.0 
C3516 29 431  37.3761E-18 M=1.0 
C3517 29 427  37.3761E-18 M=1.0 
C3518 29 423  37.3761E-18 M=1.0 
C3519 29 419  21.8574E-18 M=1.0 
C3520 29 169  58.6386000000001E-18 M=1.0 
C3521 29 168  49.5477E-18 M=1.0 
C3522 29 137  58.6386E-18 M=1.0 
C3523 29 136  58.6386E-18 M=1.0 
C3524 29 104  58.6386E-18 M=1.0 
C3525 27 134  49.5477E-18 M=1.0 
C3526 27 133  49.5477E-18 M=1.0 
C3527 27 103  58.6386E-18 M=1.0 
C3528 27 101  49.5477E-18 M=1.0 
C3529 27 29  58.6386E-18 M=1.0 
C3530 26 147  58.6386E-18 M=1.0 
C3531 26 146  58.6386E-18 M=1.0 
C3532 26 134  49.5477E-18 M=1.0 
C3533 26 133  49.5477E-18 M=1.0 
C3534 26 116  58.6386E-18 M=1.0 
C3535 26 101  87.67935E-18 M=1.0 
C3536 26 29  58.6386E-18 M=1.0 
C3537 GD 134  8.3053296E-15 M=1.0 
C3538 GD 103  2.253384E-15 M=1.0 
C3539 A7B3 431  37.3761E-18 M=1.0 
C3540 A7B3 427  37.3761E-18 M=1.0 
C3541 A7B3 423  37.3761E-18 M=1.0 
C3542 A7B3 419  845.47665E-18 M=1.0 
C3543 A7B3 169  58.6386000000001E-18 M=1.0 
C3544 A7B3 168  49.5477E-18 M=1.0 
C3545 A7B3 137  58.6386E-18 M=1.0 
C3546 A7B3 136  58.6386E-18 M=1.0 
C3547 A7B3 104  58.6386E-18 M=1.0 
C3548 A7B3 103  58.6386E-18 M=1.0 
C3549 A7B3 27  58.6386E-18 M=1.0 
C3550 A7B3 26  58.6386E-18 M=1.0 
C3551 104 166  52.3044E-18 M=1.0 
C3552 104 165  52.3044E-18 M=1.0 
C3553 104 164  52.3044E-18 M=1.0 
C3554 27 166  52.3044E-18 M=1.0 
C3555 27 165  52.3044E-18 M=1.0 
C3556 27 164  52.3044E-18 M=1.0 
C3557 104 166  49.5477E-18 M=1.0 
C3558 104 165  49.5477E-18 M=1.0 
C3559 104 164  49.5477E-18 M=1.0 
C3560 27 166  49.5477E-18 M=1.0 
C3561 27 165  49.5477E-18 M=1.0 
C3562 27 164  49.5477E-18 M=1.0 
C3563 VD 26  55.3986E-18 M=1.0 
C3564 166 423  37.6677E-18 M=1.0 
C3565 166 419  22.0518E-18 M=1.0 
C3566 166 169  52.3044E-18 M=1.0 
C3567 165 423  37.6677E-18 M=1.0 
C3568 165 419  22.0518E-18 M=1.0 
C3569 165 169  52.3044E-18 M=1.0 
C3570 164 423  37.6677E-18 M=1.0 
C3571 164 419  22.0518E-18 M=1.0 
C3572 164 169  52.3044E-18 M=1.0 
C3573 137 166  52.3044E-18 M=1.0 
C3574 137 165  52.3044E-18 M=1.0 
C3575 137 164  52.3044E-18 M=1.0 
C3576 26 166  52.3044E-18 M=1.0 
C3577 26 165  52.3044E-18 M=1.0 
C3578 26 164  52.3044E-18 M=1.0 
C3579 GD 164  6.616575675E-15 M=1.0 
C3580 166 423  37.3761E-18 M=1.0 
C3581 166 419  21.8574E-18 M=1.0 
C3582 166 169  49.5477E-18 M=1.0 
C3583 165 423  37.3761E-18 M=1.0 
C3584 165 419  21.8574E-18 M=1.0 
C3585 165 169  49.5477E-18 M=1.0 
C3586 164 423  37.3761E-18 M=1.0 
C3587 164 419  21.8574E-18 M=1.0 
C3588 164 169  49.5477E-18 M=1.0 
C3589 137 166  49.5477E-18 M=1.0 
C3590 137 165  49.5477E-18 M=1.0 
C3591 137 164  49.5477E-18 M=1.0 
C3592 26 166  49.5477E-18 M=1.0 
C3593 26 165  49.5477E-18 M=1.0 
C3594 26 164  49.5477E-18 M=1.0 
C3595 GD 202  139.8546E-18 M=1.0 
C3596 GD 197  69.9273E-18 M=1.0 
C3597 GD 146  254.566800000001E-18 M=1.0 
C3598 GD 138  209.7819E-18 M=1.0 
C3599 VD 202  26.7138E-18 M=1.0 
C3600 VD 147  81.7128E-18 M=1.0 
C3601 VD 146  81.7128000000003E-18 M=1.0 
C3602 VD 138  40.0707E-18 M=1.0 
C3603 VD A6B4  53.4276E-18 M=1.0 
C3604 GD 202  214.7382E-18 M=1.0 
C3605 GD 197  189.5436E-18 M=1.0 
C3606 GD 194  44.0135999999999E-18 M=1.0 
C3607 GD 172  44.0136E-18 M=1.0 
C3608 GD 138  136.2294E-18 M=1.0 
C3609 VD 197  30.4271999999999E-18 M=1.0 
C3610 VD 171  30.4271999999999E-18 M=1.0 
C3611 VD 170  30.4271999999999E-18 M=1.0 
C3612 VD 146  106.6266E-18 M=1.0 
C3613 197 202  135E-18 M=1.0 
C3614 171 202  65.0448E-18 M=1.0 
C3615 147 816  69.9552E-18 M=1.0 
C3616 146 803  69.9552E-18 M=1.0 
C3617 146 194  69.9552E-18 M=1.0 
C3618 138 804  34.9776E-18 M=1.0 
C3619 138 197  100.0224E-18 M=1.0 
C3620 138 172  34.9776E-18 M=1.0 
C3621 GD 202  799.4889E-18 M=1.0 
C3622 GD 197  326.322E-18 M=1.0 
C3623 GD 194  66.4299E-18 M=1.0 
C3624 GD 172  65.9682E-18 M=1.0 
C3625 GD 138  6.1455852E-15 M=1.0 
C3626 A6B4 197  100.0224E-18 M=1.0 
C3627 A6B4 138  174.888E-18 M=1.0 
C3628 VD 816  66.4299E-18 M=1.0 
C3629 VD 804  65.9682E-18 M=1.0 
C3630 VD 803  66.4299E-18 M=1.0 
C3631 A7B3 804  34.9776E-18 M=1.0 
C3632 A7B3 202  169.9776E-18 M=1.0 
C3633 A7B3 197  100.0224E-18 M=1.0 
C3634 A7B3 172  34.9776E-18 M=1.0 
C3635 A7B3 A6B4  174.888E-18 M=1.0 
C3636 171 197  69.741E-18 M=1.0 
C3637 170 202  51.2748E-18 M=1.0 
C3638 170 197  69.741E-18 M=1.0 
C3639 170 171  44.1036E-18 M=1.0 
C3640 147 816  52.3044E-18 M=1.0 
C3641 147 194  52.3044E-18 M=1.0 
C3642 146 803  52.3044E-18 M=1.0 
C3643 138 171  76.9122E-18 M=1.0 
C3644 138 170  40.9032E-18 M=1.0 
C3645 GD 171  3.29595615E-15 M=1.0 
C3646 A6B4 170  25.6374E-18 M=1.0 
C3647 VD 170  545.4333E-18 M=1.0 
C3648 VD 147  610.720875E-18 M=1.0 
C3649 VD 146  378.56205E-18 M=1.0 
C3650 VD 116  1.354396275E-15 M=1.0 
C3651 A7B3 171  102.5496E-18 M=1.0 
C3652 A7B3 170  137.1636E-18 M=1.0 
C3653 202 227  567.429075E-18 M=1.0 
C3654 197 227  77.8167E-18 M=1.0 
C3655 170 227  129.8106E-18 M=1.0 
C3656 138 227  137.7333E-18 M=1.0 
C3657 VD 227  124.1901E-18 M=1.0 
C3658 A7B3 227  122.9598E-18 M=1.0 
C3659 GD 195  139.8546E-18 M=1.0 
C3660 GD 193  69.9273000000005E-18 M=1.0 
C3661 GD 189  69.9272999999993E-18 M=1.0 
C3662 GD 188  69.9272999999998E-18 M=1.0 
C3663 GD 40  204.282000000001E-18 M=1.0 
C3664 GD 26  282.852000000001E-18 M=1.0 
C3665 VD 232  26.7138000000001E-18 M=1.0 
C3666 VD 195  26.7137999999998E-18 M=1.0 
C3667 VD 136  40.0707000000004E-18 M=1.0 
C3668 VD 103  81.7127999999999E-18 M=1.0 
C3669 GD 195  214.7382E-18 M=1.0 
C3670 GD 193  189.5436E-18 M=1.0 
C3671 GD 192  44.0136E-18 M=1.0 
C3672 GD 191  164.349E-18 M=1.0 
C3673 GD 189  189.5436E-18 M=1.0 
C3674 GD 188  189.5436E-18 M=1.0 
C3675 GD 136  136.2294E-18 M=1.0 
C3676 GD 26  133.0416E-18 M=1.0 
C3677 VD 230  30.4271999999999E-18 M=1.0 
C3678 VD 228  102.8232E-18 M=1.0 
C3679 VD 227  30.4272E-18 M=1.0 
C3680 VD 226  30.4272E-18 M=1.0 
C3681 VD 193  30.4272000000001E-18 M=1.0 
C3682 VD 190  30.4272E-18 M=1.0 
C3683 VD 189  30.4272000000001E-18 M=1.0 
C3684 VD 188  30.4272E-18 M=1.0 
C3685 VD 147  106.6266E-18 M=1.0 
C3686 226 814  69.2001E-18 M=1.0 
C3687 193 195  135E-18 M=1.0 
C3688 191 195  65.0448E-18 M=1.0 
C3689 189 799  34.9776E-18 M=1.0 
C3690 188 799  34.9776E-18 M=1.0 
C3691 188 189  100.0224E-18 M=1.0 
C3692 187 814  34.9776E-18 M=1.0 
C3693 169 232  204.9552E-18 M=1.0 
C3694 168 195  204.9552E-18 M=1.0 
C3695 168 193  100.0224E-18 M=1.0 
C3696 147 815  34.9776E-18 M=1.0 
C3697 147 232  169.9776E-18 M=1.0 
C3698 147 169  174.888E-18 M=1.0 
C3699 146 802  34.9776E-18 M=1.0 
C3700 146 195  169.9776E-18 M=1.0 
C3701 146 193  100.0224E-18 M=1.0 
C3702 146 192  34.9776E-18 M=1.0 
C3703 137 815  34.9776E-18 M=1.0 
C3704 137 169  174.888E-18 M=1.0 
C3705 137 147  139.9104E-18 M=1.0 
C3706 136 802  34.9776E-18 M=1.0 
C3707 136 195  139.9104E-18 M=1.0 
C3708 136 193  100.0224E-18 M=1.0 
C3709 136 192  34.9776E-18 M=1.0 
C3710 136 146  139.9104E-18 M=1.0 
C3711 115 189  69.9552E-18 M=1.0 
C3712 115 188  100.0224E-18 M=1.0 
C3713 103 814  69.9552E-18 M=1.0 
C3714 40 189  100.0224E-18 M=1.0 
C3715 40 188  100.0224E-18 M=1.0 
C3716 26 814  34.9776E-18 M=1.0 
C3717 26 187  174.888E-18 M=1.0 
C3718 26 103  174.888E-18 M=1.0 
C3719 GD 195  799.4889E-18 M=1.0 
C3720 GD 193  326.322E-18 M=1.0 
C3721 GD 192  65.9682E-18 M=1.0 
C3722 GD 189  230.8167E-18 M=1.0 
C3723 GD 188  146.8449E-18 M=1.0 
C3724 GD 169  1.7997714E-15 M=1.0 
C3725 GD 168  2.9838051E-15 M=1.0 
C3726 GD 136  3.8613312E-15 M=1.0 
C3727 VD 815  65.9682E-18 M=1.0 
C3728 VD 814  66.4299E-18 M=1.0 
C3729 VD 802  65.9682E-18 M=1.0 
C3730 VD 799  65.9682E-18 M=1.0 
C3731 VD 147  689.1111E-18 M=1.0 
C3732 VD 103  689.1111E-18 M=1.0 
C3733 VD 40  527.5539E-18 M=1.0 
C3734 146 169  95.3766000000001E-18 M=1.0 
C3735 137 195  52.3044E-18 M=1.0 
C3736 137 193  73.2384E-18 M=1.0 
C3737 137 168  135.1404E-18 M=1.0 
C3738 137 146  67.5702E-18 M=1.0 
C3739 136 169  77.9418E-18 M=1.0 
C3740 103 814  52.6203E-18 M=1.0 
C3741 40 115  52.3044E-18 M=1.0 
C3742 26 814  52.3044E-18 M=1.0 
C3743 26 189  439.3539E-18 M=1.0 
C3744 26 103  104.6088E-18 M=1.0 
C3745 26 40  52.3044E-18 M=1.0 
C3746 GD 190  77.1624E-18 M=1.0 
C3747 GD 137  3.3312339E-15 M=1.0 
C3748 VD 169  460.1997E-18 M=1.0 
C3749 VD 115  488.0502E-18 M=1.0 
C3750 VD 26  563.11785E-18 M=1.0 
C3751 191 431  49.5477E-18 M=1.0 
C3752 191 362  49.5477E-18 M=1.0 
C3753 191 195  21.0402E-18 M=1.0 
C3754 190 191  44.4438E-18 M=1.0 
C3755 189 191  36.7209E-18 M=1.0 
C3756 188 191  64.917E-18 M=1.0 
C3757 185 189  36.5589E-18 M=1.0 
C3758 185 188  64.755E-18 M=1.0 
C3759 115 191  113.39415E-18 M=1.0 
C3760 115 185  99.118575E-18 M=1.0 
C3761 103 191  58.6386E-18 M=1.0 
C3762 103 185  495.74835E-18 M=1.0 
C3763 40 814  46.251E-18 M=1.0 
C3764 40 185  100.719E-18 M=1.0 
C3765 40 103  344.8323E-18 M=1.0 
C3766 26 191  58.6386E-18 M=1.0 
C3767 26 185  58.6386E-18 M=1.0 
C3768 GD 191  113.0328E-18 M=1.0 
C3769 GD 190  1.8032598E-15 M=1.0 
C3770 GD 185  652.968E-18 M=1.0 
C3771 VD 191  531.1152E-18 M=1.0 
C3772 VD 220  26.7138E-18 M=1.0 
C3773 VD 218  30.4272E-18 M=1.0 
C3774 362 419  55.3986E-18 M=1.0 
C3775 358 419  55.3986E-18 M=1.0 
C3776 354 419  55.3986E-18 M=1.0 
C3777 191 220  169.9776E-18 M=1.0 
C3778 179 191  174.888E-18 M=1.0 
C3779 GD 28  6.1373754E-15 M=1.0 
C3780 A0ININ 419  55.3986E-18 M=1.0 
C3781 179 218  61.35075E-18 M=1.0 
C3782 173 218  72.11025E-18 M=1.0 
C3783 167 415  37.6677E-18 M=1.0 
C3784 167 362  52.3044E-18 M=1.0 
C3785 167 358  52.3044E-18 M=1.0 
C3786 167 354  52.3044E-18 M=1.0 
C3787 167 350  52.3044E-18 M=1.0 
C3788 145 415  37.6677E-18 M=1.0 
C3789 145 350  70.614E-18 M=1.0 
C3790 135 415  37.6677E-18 M=1.0 
C3791 135 362  52.3044E-18 M=1.0 
C3792 135 358  52.3044E-18 M=1.0 
C3793 135 354  52.3044E-18 M=1.0 
[...]
M13164 630 523 1210 GD  TSMC18DN  L=180.000000682412E-9 W=269.999986812763E-9 
+AD=174.150001060538E-15 AS=60.7500025761806E-15 PD=1.25999997635518E-6 
+PS=449.999987495175E-9 M=1 
M13165 1210 701 GD GD  TSMC18DN  L=180.000000682412E-9 W=269.999986812763E-9 
+AD=60.7500025761806E-15 AS=101.25000203488E-15 PD=449.999987495175E-9 
+PS=720.000002729648E-9 M=1 
M13166 GD 701 629 GD  TSMC18DN  L=180.000000682412E-9 W=269.999986812763E-9 
+AD=101.25000203488E-15 AS=166.049994392535E-15 PD=720.000002729648E-9 
+PS=1.4400000054593E-6 M=1 
M13167 634 630 GD GD  TSMC18DN  L=180.000000682412E-9 W=269.999986812763E-9 
+AD=238.950000194457E-15 AS=153.900004719321E-15 PD=1.97999997908482E-6 
+PS=1.35000004775065E-6 M=1 
M13168 633 631 GD GD  TSMC18DN  L=180.000000682412E-9 W=269.999986812763E-9 
+AD=238.950000194457E-15 AS=89.0999988091383E-15 PD=1.97999997908482E-6 
+PS=629.999988177588E-9 M=1 
M13169 GD 523 632 GD  TSMC18DN  L=180.000000682412E-9 W=269.999986812763E-9 
+AD=89.0999988091383E-15 AS=89.0999988091383E-15 PD=629.999988177588E-9 
+PS=629.999988177588E-9 M=1 
M13170 632 701 GD GD  TSMC18DN  L=180.000000682412E-9 W=269.999986812763E-9 
+AD=89.0999988091383E-15 AS=89.0999988091383E-15 PD=629.999988177588E-9 
+PS=629.999988177588E-9 M=1 
M13171 GD 489 632 GD  TSMC18DN  L=180.000000682412E-9 W=269.999986812763E-9 
+AD=89.0999988091383E-15 AS=137.700004935841E-15 PD=629.999988177588E-9 
+PS=989.999989542412E-9 M=1 
M13172 632 630 631 GD  TSMC18DN  L=180.000000682412E-9 W=269.999986812763E-9 
+AD=137.700004935841E-15 AS=174.150001060538E-15 PD=989.999989542412E-9 
+PS=1.25999997635518E-6 M=1 
M13173 631 489 1212 GD  TSMC18DN  L=180.000000682412E-9 W=269.999986812763E-9 
+AD=174.150001060538E-15 AS=66.8249974127878E-15 PD=1.25999997635518E-6 
+PS=494.999994771206E-9 M=1 
M13174 1212 701 1211 GD  TSMC18DN  L=180.000000682412E-9 W=269.999986812763E-9 
+AD=66.8249974127878E-15 AS=60.7500025761806E-15 PD=494.999994771206E-9 
+PS=449.999987495175E-9 M=1 
M13175 1211 523 GD GD  TSMC18DN  L=180.000000682412E-9 W=269.999986812763E-9 
+AD=60.7500025761806E-15 AS=101.25000203488E-15 PD=449.999987495175E-9 
+PS=720.000002729648E-9 M=1 
M13176 GD 523 629 GD  TSMC18DN  L=180.000000682412E-9 W=269.999986812763E-9 
+AD=101.25000203488E-15 AS=89.0999988091383E-15 PD=720.000002729648E-9 
+PS=629.999988177588E-9 M=1 
M13177 629 489 630 GD  TSMC18DN  L=180.000000682412E-9 W=269.999986812763E-9 
+AD=89.0999988091383E-15 AS=174.150001060538E-15 PD=629.999988177588E-9 
+PS=1.25999997635518E-6 M=1 
M13178 GD 593 606 GD  TSMC18DN  L=180.000000682412E-9 W=269.999986812763E-9 
+AD=153.900004719321E-15 AS=153.900004719321E-15 PD=1.35000004775065E-6 
+PS=1.35000004775065E-6 M=1 
M13179 593 CLK_EN GD GD  TSMC18DN  L=180.000000682412E-9 W=269.999986812763E-9 
+AD=153.900004719321E-15 AS=153.900004719321E-15 PD=1.35000004775065E-6 
+PS=1.35000004775065E-6 M=1 
M13180 GD 524 1176 GD  TSMC18DN  L=180.000000682412E-9 W=269.999986812763E-9 
+AD=226.799996968716E-15 AS=72.8999990256586E-15 PD=1.89000002137618E-6 
+PS=539.999973625527E-9 M=1 
M13181 1176 542 566 GD  TSMC18DN  L=180.000000682412E-9 W=269.999986812763E-9 
+AD=72.8999990256586E-15 AS=251.100003420199E-15 PD=539.999973625527E-9 
+PS=2.06999993679347E-6 M=1 
M13182 GD 593 555 GD  TSMC18DN  L=180.000000682412E-9 W=269.999986812763E-9 
+AD=153.900004719321E-15 AS=153.900004719321E-15 PD=1.35000004775065E-6 
+PS=1.35000004775065E-6 M=1 
M13183 GD 555 451 GD  TSMC18DN  L=180.000000682412E-9 W=269.999986812763E-9 
+AD=153.900004719321E-15 AS=153.900004719321E-15 PD=1.35000004775065E-6 
+PS=1.35000004775065E-6 M=1 
M13184 GD 409 1097 GD  TSMC18DN  L=180.000000682412E-9 W=269.999986812763E-9 
+AD=214.649993742974E-15 AS=60.7500025761806E-15 PD=1.7999999499807E-6 
+PS=449.999987495175E-9 M=1 
M13185 1097 387 408 GD  TSMC18DN  L=180.000000682412E-9 W=269.999986812763E-9 
+AD=60.7500025761806E-15 AS=166.049994392535E-15 PD=449.999987495175E-9 
+PS=1.4400000054593E-6 M=1 
M13186 GD 408 407 GD  TSMC18DN  L=180.000000682412E-9 W=269.999986812763E-9 
+AD=153.900004719321E-15 AS=153.900004719321E-15 PD=1.35000004775065E-6 
+PS=1.35000004775065E-6 M=1 
M13187 406 B_0 GD GD  TSMC18DN  L=180.000000682412E-9 W=269.999986812763E-9 
+AD=190.350000844018E-15 AS=89.0999988091383E-15 PD=1.62000003456342E-6 
+PS=629.999988177588E-9 M=1 
M13188 GD 387 1096 GD  TSMC18DN  L=180.000000682412E-9 W=269.999986812763E-9 
+AD=89.0999988091383E-15 AS=48.5999993504391E-15 PD=629.999988177588E-9 
+PS=360.000001364824E-9 M=1 
M13189 1096 406 405 GD  TSMC18DN  L=180.000000682412E-9 W=269.999986812763E-9 
+AD=48.5999993504391E-15 AS=153.900004719321E-15 PD=360.000001364824E-9 
+PS=1.35000004775065E-6 M=1 
M13190 GD 405 1095 GD  TSMC18DN  L=180.000000682412E-9 W=269.999986812763E-9 
+AD=214.649993742974E-15 AS=60.7500025761806E-15 PD=1.7999999499807E-6 
+PS=449.999987495175E-9 M=1 
M13191 1095 387 404 GD  TSMC18DN  L=180.000000682412E-9 W=269.999986812763E-9 
+AD=60.7500025761806E-15 AS=166.049994392535E-15 PD=449.999987495175E-9 
+PS=1.4400000054593E-6 M=1 
M13192 GD 404 403 GD  TSMC18DN  L=180.000000682412E-9 W=269.999986812763E-9 
+AD=153.900004719321E-15 AS=153.900004719321E-15 PD=1.35000004775065E-6 
+PS=1.35000004775065E-6 M=1 
M13193 GD 417 1101 GD  TSMC18DN  L=180.000000682412E-9 W=269.999986812763E-9 
+AD=214.649993742974E-15 AS=60.7500025761806E-15 PD=1.7999999499807E-6 
+PS=449.999987495175E-9 M=1 
M13194 1101 387 416 GD  TSMC18DN  L=180.000000682412E-9 W=269.999986812763E-9 
+AD=60.7500025761806E-15 AS=166.049994392535E-15 PD=449.999987495175E-9 
+PS=1.4400000054593E-6 M=1 
M13195 GD 416 415 GD  TSMC18DN  L=180.000000682412E-9 W=269.999986812763E-9 
+AD=153.900004719321E-15 AS=153.900004719321E-15 PD=1.35000004775065E-6 
+PS=1.35000004775065E-6 M=1 
M13196 414 B_2 GD GD  TSMC18DN  L=180.000000682412E-9 W=269.999986812763E-9 
+AD=190.350000844018E-15 AS=89.0999988091383E-15 PD=1.62000003456342E-6 
+PS=629.999988177588E-9 M=1 
M13197 GD 387 1100 GD  TSMC18DN  L=180.000000682412E-9 W=269.999986812763E-9 
+AD=89.0999988091383E-15 AS=48.5999993504391E-15 PD=629.999988177588E-9 
+PS=360.000001364824E-9 M=1 
M13198 1100 414 413 GD  TSMC18DN  L=180.000000682412E-9 W=269.999986812763E-9 
+AD=48.5999993504391E-15 AS=153.900004719321E-15 PD=360.000001364824E-9 
+PS=1.35000004775065E-6 M=1 
M13199 GD 413 1099 GD  TSMC18DN  L=180.000000682412E-9 W=269.999986812763E-9 
+AD=214.649993742974E-15 AS=60.7500025761806E-15 PD=1.7999999499807E-6 
+PS=449.999987495175E-9 M=1 
M13200 1099 387 412 GD  TSMC18DN  L=180.000000682412E-9 W=269.999986812763E-9 
+AD=60.7500025761806E-15 AS=166.049994392535E-15 PD=449.999987495175E-9 
+PS=1.4400000054593E-6 M=1 
M13201 GD 412 411 GD  TSMC18DN  L=180.000000682412E-9 W=269.999986812763E-9 
+AD=153.900004719321E-15 AS=153.900004719321E-15 PD=1.35000004775065E-6 
+PS=1.35000004775065E-6 M=1 
M13202 410 B_1 GD GD  TSMC18DN  L=180.000000682412E-9 W=269.999986812763E-9 
+AD=190.350000844018E-15 AS=89.0999988091383E-15 PD=1.62000003456342E-6 
+PS=629.999988177588E-9 M=1 
M13203 GD 387 1098 GD  TSMC18DN  L=180.000000682412E-9 W=269.999986812763E-9 
+AD=89.0999988091383E-15 AS=48.5999993504391E-15 PD=629.999988177588E-9 
+PS=360.000001364824E-9 M=1 
M13204 1098 410 409 GD  TSMC18DN  L=180.000000682412E-9 W=269.999986812763E-9 
+AD=48.5999993504391E-15 AS=153.900004719321E-15 PD=360.000001364824E-9 
+PS=1.35000004775065E-6 M=1 
M13205 GD 451 388 GD  TSMC18DN  L=180.000000682412E-9 W=269.999986812763E-9 
+AD=153.900004719321E-15 AS=153.900004719321E-15 PD=1.35000004775065E-6 
+PS=1.35000004775065E-6 M=1 
M13206 387 451 GD GD  TSMC18DN  L=180.000000682412E-9 W=269.999986812763E-9 
+AD=153.900004719321E-15 AS=153.900004719321E-15 PD=1.35000004775065E-6 
+PS=1.35000004775065E-6 M=1 
M13207 369 451 GD GD  TSMC18DN  L=180.000000682412E-9 W=269.999986812763E-9 
+AD=153.900004719321E-15 AS=153.900004719321E-15 PD=1.35000004775065E-6 
+PS=1.35000004775065E-6 M=1 
M13208 1060 336 GD GD  TSMC18DN  L=180.000000682412E-9 W=269.999986812763E-9 
+AD=60.7500025761806E-15 AS=214.649993742974E-15 PD=449.999987495175E-9 
+PS=1.7999999499807E-6 M=1 
M13209 336 335 1059 GD  TSMC18DN  L=180.000000682412E-9 W=269.999986812763E-9 
+AD=153.900004719321E-15 AS=48.5999993504391E-15 PD=1.35000004775065E-6 
+PS=360.000001364824E-9 M=1 
M13210 1059 369 GD GD  TSMC18DN  L=180.000000682412E-9 W=269.999986812763E-9 
+AD=48.5999993504391E-15 AS=89.0999988091383E-15 PD=360.000001364824E-9 
+PS=629.999988177588E-9 M=1 
M13211 GD A_7 335 GD  TSMC18DN  L=180.000000682412E-9 W=269.999986812763E-9 
+AD=89.0999988091383E-15 AS=190.350000844018E-15 PD=629.999988177588E-9 
+PS=1.62000003456342E-6 M=1 
M13212 348 347 1065 GD  TSMC18DN  L=180.000000682412E-9 W=269.999986812763E-9 
+AD=153.900004719321E-15 AS=48.5999993504391E-15 PD=1.35000004775065E-6 
+PS=360.000001364824E-9 M=1 
M13213 1065 369 GD GD  TSMC18DN  L=180.000000682412E-9 W=269.999986812763E-9 
+AD=48.5999993504391E-15 AS=89.0999988091383E-15 PD=360.000001364824E-9 
+PS=629.999988177588E-9 M=1 
M13214 GD A_4 347 GD  TSMC18DN  L=180.000000682412E-9 W=269.999986812763E-9 
+AD=89.0999988091383E-15 AS=190.350000844018E-15 PD=629.999988177588E-9 
+PS=1.62000003456342E-6 M=1 
M13215 346 345 GD GD  TSMC18DN  L=180.000000682412E-9 W=269.999986812763E-9 
+AD=153.900004719321E-15 AS=153.900004719321E-15 PD=1.35000004775065E-6 
+PS=1.35000004775065E-6 M=1 
M13216 345 369 1064 GD  TSMC18DN  L=180.000000682412E-9 W=269.999986812763E-9 
+AD=166.049994392535E-15 AS=60.7500025761806E-15 PD=1.4400000054593E-6 
+PS=449.999987495175E-9 M=1 
M13217 1064 344 GD GD  TSMC18DN  L=180.000000682412E-9 W=269.999986812763E-9 
+AD=60.7500025761806E-15 AS=214.649993742974E-15 PD=449.999987495175E-9 
+PS=1.7999999499807E-6 M=1 
M13218 344 343 1063 GD  TSMC18DN  L=180.000000682412E-9 W=269.999986812763E-9 
+AD=153.900004719321E-15 AS=48.5999993504391E-15 PD=1.35000004775065E-6 
+PS=360.000001364824E-9 M=1 
M13219 1063 369 GD GD  TSMC18DN  L=180.000000682412E-9 W=269.999986812763E-9 
+AD=48.5999993504391E-15 AS=89.0999988091383E-15 PD=360.000001364824E-9 
+PS=629.999988177588E-9 M=1 
M13220 GD A_5 343 GD  TSMC18DN  L=180.000000682412E-9 W=269.999986812763E-9 
+AD=89.0999988091383E-15 AS=190.350000844018E-15 PD=629.999988177588E-9 
+PS=1.62000003456342E-6 M=1 
M13221 342 341 GD GD  TSMC18DN  L=180.000000682412E-9 W=269.999986812763E-9 
+AD=153.900004719321E-15 AS=153.900004719321E-15 PD=1.35000004775065E-6 
+PS=1.35000004775065E-6 M=1 
M13222 341 369 1062 GD  TSMC18DN  L=180.000000682412E-9 W=269.999986812763E-9 
+AD=166.049994392535E-15 AS=60.7500025761806E-15 PD=1.4400000054593E-6 
+PS=449.999987495175E-9 M=1 
M13223 1062 340 GD GD  TSMC18DN  L=180.000000682412E-9 W=269.999986812763E-9 
+AD=60.7500025761806E-15 AS=214.649993742974E-15 PD=449.999987495175E-9 
+PS=1.7999999499807E-6 M=1 
M13224 340 339 1061 GD  TSMC18DN  L=180.000000682412E-9 W=269.999986812763E-9 
+AD=153.900004719321E-15 AS=48.5999993504391E-15 PD=1.35000004775065E-6 
+PS=360.000001364824E-9 M=1 
M13225 1061 369 GD GD  TSMC18DN  L=180.000000682412E-9 W=269.999986812763E-9 
+AD=48.5999993504391E-15 AS=89.0999988091383E-15 PD=360.000001364824E-9 
+PS=629.999988177588E-9 M=1 
M13226 GD A_6 339 GD  TSMC18DN  L=180.000000682412E-9 W=269.999986812763E-9 
+AD=89.0999988091383E-15 AS=190.350000844018E-15 PD=629.999988177588E-9 
+PS=1.62000003456342E-6 M=1 
M13227 338 337 GD GD  TSMC18DN  L=180.000000682412E-9 W=269.999986812763E-9 
+AD=153.900004719321E-15 AS=153.900004719321E-15 PD=1.35000004775065E-6 
+PS=1.35000004775065E-6 M=1 
M13228 337 369 1060 GD  TSMC18DN  L=180.000000682412E-9 W=269.999986812763E-9 
+AD=166.049994392535E-15 AS=60.7500025761806E-15 PD=1.4400000054593E-6 
+PS=449.999987495175E-9 M=1 
M13229 333 245 GD GD  TSMC18DN  L=180.000000682412E-9 W=269.999986812763E-9 
+AD=166.049994392535E-15 AS=101.25000203488E-15 PD=1.4400000054593E-6 
+PS=720.000002729648E-9 M=1 
M13230 GD 245 1058 GD  TSMC18DN  L=180.000000682412E-9 W=269.999986812763E-9 
+AD=101.25000203488E-15 AS=60.7500025761806E-15 PD=720.000002729648E-9 
+PS=449.999987495175E-9 M=1 
M13231 1058 235 334 GD  TSMC18DN  L=180.000000682412E-9 W=269.999986812763E-9 
+AD=60.7500025761806E-15 AS=174.150001060538E-15 PD=449.999987495175E-9 
+PS=1.25999997635518E-6 M=1 
M13232 334 282 333 GD  TSMC18DN  L=180.000000682412E-9 W=269.999986812763E-9 
+AD=174.150001060538E-15 AS=89.0999988091383E-15 PD=1.25999997635518E-6 
+PS=629.999988177588E-9 M=1 
M13233 333 235 GD GD  TSMC18DN  L=180.000000682412E-9 W=269.999986812763E-9 
+AD=89.0999988091383E-15 AS=101.25000203488E-15 PD=629.999988177588E-9 
+PS=720.000002729648E-9 M=1 
M13234 GD 235 1057 GD  TSMC18DN  L=180.000000682412E-9 W=269.999986812763E-9 
+AD=101.25000203488E-15 AS=60.7500025761806E-15 PD=720.000002729648E-9 
+PS=449.999987495175E-9 M=1 
M13235 1057 245 1056 GD  TSMC18DN  L=180.000000682412E-9 W=269.999986812763E-9 
+AD=60.7500025761806E-15 AS=66.8249974127878E-15 PD=449.999987495175E-9 
+PS=494.999994771206E-9 M=1 
M13236 1056 282 332 GD  TSMC18DN  L=180.000000682412E-9 W=269.999986812763E-9 
+AD=66.8249974127878E-15 AS=174.150001060538E-15 PD=494.999994771206E-9 
+PS=1.25999997635518E-6 M=1 
M13237 332 334 331 GD  TSMC18DN  L=180.000000682412E-9 W=269.999986812763E-9 
+AD=174.150001060538E-15 AS=137.700004935841E-15 PD=1.25999997635518E-6 
+PS=989.999989542412E-9 M=1 
M13238 331 282 GD GD  TSMC18DN  L=180.000000682412E-9 W=269.999986812763E-9 
+AD=137.700004935841E-15 AS=89.0999988091383E-15 PD=989.999989542412E-9 
+PS=629.999988177588E-9 M=1 
M13239 GD 245 331 GD  TSMC18DN  L=180.000000682412E-9 W=269.999986812763E-9 
+AD=89.0999988091383E-15 AS=89.0999988091383E-15 PD=629.999988177588E-9 
+PS=629.999988177588E-9 M=1 
M13240 331 235 GD GD  TSMC18DN  L=180.000000682412E-9 W=269.999986812763E-9 
+AD=89.0999988091383E-15 AS=89.0999988091383E-15 PD=629.999988177588E-9 
+PS=629.999988177588E-9 M=1 
M13241 GD 332 330 GD  TSMC18DN  L=180.000000682412E-9 W=269.999986812763E-9 
+AD=89.0999988091383E-15 AS=238.950000194457E-15 PD=629.999988177588E-9 
+PS=1.97999997908482E-6 M=1 
M13242 GD 334 329 GD  TSMC18DN  L=180.000000682412E-9 W=269.999986812763E-9 
+AD=153.900004719321E-15 AS=238.950000194457E-15 PD=1.35000004775065E-6 
+PS=1.97999997908482E-6 M=1 
M13243 326 244 1054 GD  TSMC18DN  L=180.000000682412E-9 W=269.999986812763E-9 
+AD=89.0999988091383E-15 AS=48.5999993504391E-15 PD=629.999988177588E-9 
+PS=360.000001364824E-9 M=1 
M13244 1054 101 GD GD  TSMC18DN  L=180.000000682412E-9 W=269.999986812763E-9 
+AD=48.5999993504391E-15 AS=153.900004719321E-15 PD=360.000001364824E-9 
+PS=1.35000004775065E-6 M=1 
M13245 GD 244 1053 GD  TSMC18DN  L=180.000000682412E-9 W=269.999986812763E-9 
+AD=153.900004719321E-15 AS=48.5999993504391E-15 PD=1.35000004775065E-6 
+PS=360.000001364824E-9 M=1 
M13246 1053 101 325 GD  TSMC18DN  L=180.000000682412E-9 W=269.999986812763E-9 
+AD=48.5999993504391E-15 AS=153.900004719321E-15 PD=360.000001364824E-9 
+PS=1.35000004775065E-6 M=1 
M13247 GD 325 324 GD  TSMC18DN  L=180.000000682412E-9 W=269.999986812763E-9 
+AD=190.350000844018E-15 AS=153.900004719321E-15 PD=1.62000003456342E-6 
+PS=1.35000004775065E-6 M=1 
M13248 GD 244 328 GD  TSMC18DN  L=180.000000682412E-9 W=269.999986812763E-9 
+AD=153.900004719321E-15 AS=153.900004719321E-15 PD=1.35000004775065E-6 
+PS=1.35000004775065E-6 M=1 
M13249 GD 101 327 GD  TSMC18DN  L=180.000000682412E-9 W=269.999986812763E-9 
+AD=153.900004719321E-15 AS=153.900004719321E-15 PD=1.35000004775065E-6 
+PS=1.35000004775065E-6 M=1 
M13250 GD 328 1055 GD  TSMC18DN  L=180.000000682412E-9 W=269.999986812763E-9 
+AD=166.049994392535E-15 AS=72.8999990256586E-15 PD=1.4400000054593E-6 
+PS=539.999973625527E-9 M=1 
M13251 1055 327 326 GD  TSMC18DN  L=180.000000682412E-9 W=269.999986812763E-9 
+AD=72.8999990256586E-15 AS=89.0999988091383E-15 PD=539.999973625527E-9 
+PS=629.999988177588E-9 M=1 
M13252 GD 222 1038 GD  TSMC18DN  L=180.000000682412E-9 W=269.999986812763E-9 
+AD=101.25000203488E-15 AS=60.7500025761806E-15 PD=720.000002729648E-9 
+PS=449.999987495175E-9 M=1 
M13253 1038 255 1037 GD  TSMC18DN  L=180.000000682412E-9 W=269.999986812763E-9 
+AD=60.7500025761806E-15 AS=66.8249974127878E-15 PD=449.999987495175E-9 
+PS=494.999994771206E-9 M=1 
M13254 1037 248 295 GD  TSMC18DN  L=180.000000682412E-9 W=269.999986812763E-9 
+AD=66.8249974127878E-15 AS=174.150001060538E-15 PD=494.999994771206E-9 
+PS=1.25999997635518E-6 M=1 
M13255 295 297 294 GD  TSMC18DN  L=180.000000682412E-9 W=269.999986812763E-9 
+AD=174.150001060538E-15 AS=137.700004935841E-15 PD=1.25999997635518E-6 
+PS=989.999989542412E-9 M=1 
M13256 294 248 GD GD  TSMC18DN  L=180.000000682412E-9 W=269.999986812763E-9 
+AD=137.700004935841E-15 AS=89.0999988091383E-15 PD=989.999989542412E-9 
+PS=629.999988177588E-9 M=1 
M13257 GD 255 294 GD  TSMC18DN  L=180.000000682412E-9 W=269.999986812763E-9 
+AD=89.0999988091383E-15 AS=89.0999988091383E-15 PD=629.999988177588E-9 
+PS=629.999988177588E-9 M=1 
M13258 294 222 GD GD  TSMC18DN  L=180.000000682412E-9 W=269.999986812763E-9 
+AD=89.0999988091383E-15 AS=89.0999988091383E-15 PD=629.999988177588E-9 
+PS=629.999988177588E-9 M=1 
M13259 GD 295 293 GD  TSMC18DN  L=180.000000682412E-9 W=269.999986812763E-9 
+AD=89.0999988091383E-15 AS=238.950000194457E-15 PD=629.999988177588E-9 
+PS=1.97999997908482E-6 M=1 
M13260 GD 297 292 GD  TSMC18DN  L=180.000000682412E-9 W=269.999986812763E-9 
+AD=153.900004719321E-15 AS=238.950000194457E-15 PD=1.35000004775065E-6 
+PS=1.97999997908482E-6 M=1 
M13261 1040 254 301 GD  TSMC18DN  L=180.000000682412E-9 W=269.999986812763E-9 
+AD=66.8249974127878E-15 AS=174.150001060538E-15 PD=494.999994771206E-9 
+PS=1.25999997635518E-6 M=1 
M13262 301 303 300 GD  TSMC18DN  L=180.000000682412E-9 W=269.999986812763E-9 
+AD=174.150001060538E-15 AS=137.700004935841E-15 PD=1.25999997635518E-6 
+PS=989.999989542412E-9 M=1 
M13263 300 254 GD GD  TSMC18DN  L=180.000000682412E-9 W=269.999986812763E-9 
+AD=137.700004935841E-15 AS=89.0999988091383E-15 PD=989.999989542412E-9 
+PS=629.999988177588E-9 M=1 
M13264 GD 317 300 GD  TSMC18DN  L=180.000000682412E-9 W=269.999986812763E-9 
+AD=89.0999988091383E-15 AS=89.0999988091383E-15 PD=629.999988177588E-9 
+PS=629.999988177588E-9 M=1 
M13265 300 261 GD GD  TSMC18DN  L=180.000000682412E-9 W=269.999986812763E-9 
+AD=89.0999988091383E-15 AS=89.0999988091383E-15 PD=629.999988177588E-9 
+PS=629.999988177588E-9 M=1 
M13266 GD 301 299 GD  TSMC18DN  L=180.000000682412E-9 W=269.999986812763E-9 
+AD=89.0999988091383E-15 AS=238.950000194457E-15 PD=629.999988177588E-9 
+PS=1.97999997908482E-6 M=1 
M13267 GD 303 298 GD  TSMC18DN  L=180.000000682412E-9 W=269.999986812763E-9 
+AD=153.900004719321E-15 AS=238.950000194457E-15 PD=1.35000004775065E-6 
+PS=1.97999997908482E-6 M=1 
M13268 296 255 GD GD  TSMC18DN  L=180.000000682412E-9 W=269.999986812763E-9 
+AD=166.049994392535E-15 AS=101.25000203488E-15 PD=1.4400000054593E-6 
+PS=720.000002729648E-9 M=1 
M13269 GD 255 1039 GD  TSMC18DN  L=180.000000682412E-9 W=269.999986812763E-9 
+AD=101.25000203488E-15 AS=60.7500025761806E-15 PD=720.000002729648E-9 
+PS=449.999987495175E-9 M=1 
M13270 1039 222 297 GD  TSMC18DN  L=180.000000682412E-9 W=269.999986812763E-9 
+AD=60.7500025761806E-15 AS=174.150001060538E-15 PD=449.999987495175E-9 
+PS=1.25999997635518E-6 M=1 
M13271 297 248 296 GD  TSMC18DN  L=180.000000682412E-9 W=269.999986812763E-9 
+AD=174.150001060538E-15 AS=89.0999988091383E-15 PD=1.25999997635518E-6 
+PS=629.999988177588E-9 M=1 
M13272 296 222 GD GD  TSMC18DN  L=180.000000682412E-9 W=269.999986812763E-9 
+AD=89.0999988091383E-15 AS=101.25000203488E-15 PD=629.999988177588E-9 
+PS=720.000002729648E-9 M=1 
   
   
   
   
   
.lib "$CDK_DIR/models/hspice/public/publicModel/tsmc18dP" PMOS 
.lib "$CDK_DIR/models/hspice/public/publicModel/tsmc18dN" NMOS 
   
   
* INCLUDE FILES
   
   
* END OF NETLIST
.TEMP    25.0000    
.TRAN  1.00000E-09 60.00000E-08 START=  0.0000    
*.OP
*.save
*.OPTION  INGOLD=2 ARTIST=2 PSF=2
*+        PROBE=0
vGD GD 0 DC=0v
vVD VD 0 DC=1.8v
vclk clk 0 pulse 0v 1.8v 1n 0.1n 0.1n 1.5n 3n
.END   

