* # FILE NAME: /HOME/ECEGRID/A/559MG3/CADENCE/SIMULATION/PARTIALPRODUCT64/      
* HSPICES/EXTRACTED/NETLIST/PARTIALPRODUCT64.C.RAW
* NETLIST OUTPUT FOR HSPICES.
* GENERATED ON DEC 5 21:58:22 2014   
* FILE NAME: PROJ_LIB_PARTIALPRODUCT64_EXTRACTED.S.
* SUBCIRCUIT FOR CELL: PARTIALPRODUCT64.
* GENERATED FOR: HSPICES.
* GENERATED ON DEC  5 21:58:22 2014.   
