* # FILE NAME: /HOME/ECEGRID/A/559MG3/CADENCE/SIMULATION/INVERTERTEST/          
* HSPICES/SCHEMATIC/NETLIST/INVERTERTEST.C.RAW
* NETLIST OUTPUT FOR HSPICES.
* GENERATED ON OCT 18 21:13:12 2014   
* GLOBAL NET DEFINITIONS
