Using: /usr/bin/time -p /package/eda/synopsys/hspice-E-2010.12-SP2/hspice/amd64/hspice  spice.in
 ****** HSPICE -- E-2010.12-SP2 64-BIT (May 23 2011) linux ******               
  Copyright (C) 2010 Synopsys, Inc. All Rights Reserved.                        
  Unpublished-rights reserved under US copyright laws.
  This program is protected by law and is subject to the
  terms and conditions of the license agreement from Synopsys.
  Use of this program is your acceptance to be bound by the
  license agreement. HSPICE is the trademark of Synopsys, Inc.
  Input File: spice.in                                                          
  Command line options: spice.in
 lic:  
 lic: FLEXlm: v10.8 
 lic: USER:   559mg3               HOSTNAME: ee207lnx15.ecn.purdue.edu 
 lic: HOSTID:                      PID:      31544 
 lic: Using FLEXlm license file: 
 lic: 1718@marina.ecn.purdue.edu 
 lic: Checkout 1 hspice 
 lic: License/Maintenance for hspice will expire on 14-sep-2015/2014.09 
 lic: 1(in_use)/50(total) FLOATING license(s) on SERVER marina.ecn.purdue.edu 
 lic:   
 Init: read install configuration file: /package/eda/synopsys/hspice-E-2010.12-SP2/hspice/meta.cfg
  **warning** (spice.in:8) No independent source value specified. Reset to zero.
 

 Warning: Pd = 0 is less than W.
 Model:    0:tsmc25n
 W = 3e-07, L = 2.1e-07

  
      
 *****************************************************************
 ******  option summary
 ******
 runlvl  = 3         bypass  = 2         
 ******  
 

  ******  dc transfer curves tnom=  25.000 temp=  25.000 *****

   *** source        0:vds =  0.000000e+00    ***

x

         volt    voltage       voltage       current     
                      2             1            vds     
  4.8000000e-02  4.800000e-02  0.000000e+00  0.000000e+00
  1.4800000e-01  1.480000e-01  0.000000e+00  0.000000e+00
  2.4800000e-01  2.480000e-01  0.000000e+00  0.000000e+00
  3.4800000e-01  3.480000e-01  0.000000e+00  0.000000e+00
  4.4800000e-01  4.480000e-01  0.000000e+00  0.000000e+00
  5.4800000e-01  5.480000e-01  0.000000e+00  0.000000e+00
  6.4800000e-01  6.480000e-01  0.000000e+00  0.000000e+00
  7.4800000e-01  7.480000e-01  0.000000e+00  0.000000e+00
  8.4800000e-01  8.480000e-01  0.000000e+00  0.000000e+00
  9.4800000e-01  9.480000e-01  0.000000e+00  0.000000e+00
  1.0480000e+00  1.048000e+00  0.000000e+00  0.000000e+00
  1.1480000e+00  1.148000e+00  0.000000e+00  0.000000e+00
  1.2480000e+00  1.248000e+00  0.000000e+00  0.000000e+00
  1.3480000e+00  1.348000e+00  0.000000e+00  0.000000e+00
  1.4480000e+00  1.448000e+00  0.000000e+00  0.000000e+00
  1.5480000e+00  1.548000e+00  0.000000e+00  0.000000e+00
  1.6480000e+00  1.648000e+00  0.000000e+00  0.000000e+00
  1.7480000e+00  1.748000e+00  0.000000e+00  0.000000e+00
  1.8480000e+00  1.848000e+00  0.000000e+00  0.000000e+00
  1.9480000e+00  1.948000e+00  0.000000e+00  0.000000e+00
  2.0480000e+00  2.048000e+00  0.000000e+00  0.000000e+00
  2.1480000e+00  2.148000e+00  0.000000e+00  0.000000e+00
  2.2480000e+00  2.248000e+00  0.000000e+00  0.000000e+00
  2.3480000e+00  2.348000e+00  0.000000e+00  0.000000e+00
  2.4480000e+00  2.448000e+00  0.000000e+00  0.000000e+00
  2.5480000e+00  2.548000e+00  0.000000e+00  0.000000e+00
  2.6480000e+00  2.648000e+00  0.000000e+00    NaN       
  2.7480000e+00  2.748000e+00  0.000000e+00    NaN       
  2.8480000e+00  2.848000e+00  0.000000e+00    NaN       
  2.9480000e+00  2.948000e+00  0.000000e+00    NaN       
  3.0480000e+00  3.048000e+00  0.000000e+00    NaN       
  3.1480000e+00  3.148000e+00  0.000000e+00    NaN       
  3.2480000e+00  3.248000e+00  0.000000e+00    NaN       
  3.3480000e+00  3.348000e+00  0.000000e+00    NaN       
  3.4480000e+00  3.448000e+00  0.000000e+00    NaN       
  3.5480000e+00  3.548000e+00  0.000000e+00    NaN       
  3.6480000e+00  3.648000e+00  0.000000e+00    NaN       
y
 ******  
 

  ******  dc transfer curves tnom=  25.000 temp=  25.000 *****

   *** source        0:vds =  1.000000e-01    ***

x

         volt    voltage       voltage       current     
                      2             1            vds     
  4.8000000e-02  4.800000e-02  1.000000e-01 -9.045436e-12
  1.4800000e-01  1.480000e-01  1.000000e-01 -7.766716e-11
  2.4800000e-01  2.480000e-01  1.000000e-01 -6.665864e-10
  3.4800000e-01  3.480000e-01  1.000000e-01 -5.482005e-09
  4.4800000e-01  4.480000e-01  1.000000e-01 -4.161064e-08
  5.4800000e-01  5.480000e-01  1.000000e-01 -2.880586e-07
  6.4800000e-01  6.480000e-01  1.000000e-01 -1.508479e-06
  7.4800000e-01  7.480000e-01  1.000000e-01 -4.396490e-06
  8.4800000e-01  8.480000e-01  1.000000e-01 -8.313949e-06
  9.4800000e-01  9.480000e-01  1.000000e-01 -1.273865e-05
  1.0480000e+00  1.048000e+00  1.000000e-01 -1.759496e-05
  1.1480000e+00  1.148000e+00  1.000000e-01 -2.297166e-05
  1.2480000e+00  1.248000e+00  1.000000e-01 -2.899898e-05
  1.3480000e+00  1.348000e+00  1.000000e-01 -3.582789e-05
  1.4480000e+00  1.448000e+00  1.000000e-01 -4.363937e-05
  1.5480000e+00  1.548000e+00  1.000000e-01 -5.266187e-05
  1.6480000e+00  1.648000e+00  1.000000e-01 -6.319469e-05
  1.7480000e+00  1.748000e+00  1.000000e-01 -7.564146e-05
  1.8480000e+00  1.848000e+00  1.000000e-01 -9.056085e-05
  1.9480000e+00  1.948000e+00  1.000000e-01 -1.087472e-04
  2.0480000e+00  2.048000e+00  1.000000e-01 -1.313607e-04
  2.1480000e+00  2.148000e+00  1.000000e-01 -1.601269e-04
  2.2480000e+00  2.248000e+00  1.000000e-01 -1.974833e-04
  2.3480000e+00  2.348000e+00  1.000000e-01 -2.441291e-04
  2.4480000e+00  2.448000e+00  1.000000e-01 -2.549478e-04
  2.5480000e+00  2.548000e+00  1.000000e-01 -8.663584e-04
  2.6480000e+00  2.648000e+00  1.000000e-01 -5.647568e-04
  2.7480000e+00  2.748000e+00  1.000000e-01 -5.865701e-04
  2.8480000e+00  2.848000e+00  1.000000e-01 -6.352186e-04
  2.9480000e+00  2.948000e+00  1.000000e-01 -7.004166e-04
  3.0480000e+00  3.048000e+00  1.000000e-01 -7.933254e-04
  3.1480000e+00  3.148000e+00  1.000000e-01    NaN       
  3.2480000e+00  3.248000e+00  1.000000e-01    NaN       
  3.3480000e+00  3.348000e+00  1.000000e-01    NaN       
  3.4480000e+00  3.448000e+00  1.000000e-01    NaN       
  3.5480000e+00  3.548000e+00  1.000000e-01    NaN       
  3.6480000e+00  3.648000e+00  1.000000e-01    NaN       
y
 ******  
 

  ******  dc transfer curves tnom=  25.000 temp=  25.000 *****

   *** source        0:vds =  2.000000e-01    ***

x

         volt    voltage       voltage       current     
                      2             1            vds     
  4.8000000e-02  4.800000e-02  2.000000e-01 -1.002112e-11
  1.4800000e-01  1.480000e-01  2.000000e-01 -8.465165e-11
  2.4800000e-01  2.480000e-01  2.000000e-01 -7.249482e-10
  3.4800000e-01  3.480000e-01  2.000000e-01 -5.957502e-09
  4.4800000e-01  4.480000e-01  2.000000e-01 -4.522291e-08
  5.4800000e-01  5.480000e-01  2.000000e-01 -3.150597e-07
  6.4800000e-01  6.480000e-01  2.000000e-01 -1.726898e-06
  7.4800000e-01  7.480000e-01  2.000000e-01 -5.694963e-06
  8.4800000e-01  8.480000e-01  2.000000e-01 -1.192892e-05
  9.4800000e-01  9.480000e-01  2.000000e-01 -1.925918e-05
  1.0480000e+00  1.048000e+00  2.000000e-01 -2.730767e-05
  1.1480000e+00  1.148000e+00  2.000000e-01 -3.613395e-05
  1.2480000e+00  1.248000e+00  2.000000e-01 -4.589417e-05
  1.3480000e+00  1.348000e+00  2.000000e-01 -5.677095e-05
  1.4480000e+00  1.448000e+00  2.000000e-01 -6.897458e-05
  1.5480000e+00  1.548000e+00  2.000000e-01 -8.275807e-05
  1.6480000e+00  1.648000e+00  2.000000e-01 -9.843595e-05
  1.7480000e+00  1.748000e+00  2.000000e-01 -1.164069e-04
  1.8480000e+00  1.848000e+00  2.000000e-01 -1.371813e-04
  1.9480000e+00  1.948000e+00  2.000000e-01 -1.614083e-04
  2.0480000e+00  2.048000e+00  2.000000e-01 -1.898607e-04
  2.1480000e+00  2.148000e+00  2.000000e-01 -2.231159e-04
  2.2480000e+00  2.248000e+00  2.000000e-01 -2.595325e-04
  2.3480000e+00  2.348000e+00  2.000000e-01 -2.891720e-04
  2.4480000e+00  2.448000e+00  2.000000e-01 -2.688780e-04
  2.5480000e+00  2.548000e+00  2.000000e-01 -8.207798e-04
  2.6480000e+00  2.648000e+00  2.000000e-01 -5.640142e-04
  2.7480000e+00  2.748000e+00  2.000000e-01 -5.861176e-04
  2.8480000e+00  2.848000e+00  2.000000e-01 -6.349714e-04
  2.9480000e+00  2.948000e+00  2.000000e-01 -7.006777e-04
  3.0480000e+00  3.048000e+00  2.000000e-01 -7.950113e-04
  3.1480000e+00  3.148000e+00  2.000000e-01    NaN       
  3.2480000e+00  3.248000e+00  2.000000e-01    NaN       
  3.3480000e+00  3.348000e+00  2.000000e-01    NaN       
  3.4480000e+00  3.448000e+00  2.000000e-01    NaN       
  3.5480000e+00  3.548000e+00  2.000000e-01    NaN       
  3.6480000e+00  3.648000e+00  2.000000e-01    NaN       
y
 ******  
 

  ******  dc transfer curves tnom=  25.000 temp=  25.000 *****

   *** source        0:vds =  3.000000e-01    ***

x

         volt    voltage       voltage       current     
                      2             1            vds     
  4.8000000e-02  4.800000e-02  3.000000e-01 -1.088890e-11
  1.4800000e-01  1.480000e-01  3.000000e-01 -9.068944e-11
  2.4800000e-01  2.480000e-01  3.000000e-01 -7.751178e-10
  3.4800000e-01  3.480000e-01  3.000000e-01 -6.363895e-09
  4.4800000e-01  4.480000e-01  3.000000e-01 -4.824228e-08
  5.4800000e-01  5.480000e-01  3.000000e-01 -3.351891e-07
  6.4800000e-01  6.480000e-01  3.000000e-01 -1.829148e-06
  7.4800000e-01  7.480000e-01  3.000000e-01 -6.073415e-06
  8.4800000e-01  8.480000e-01  3.000000e-01 -1.310414e-05
  9.4800000e-01  9.480000e-01  3.000000e-01 -2.193651e-05
  1.0480000e+00  1.048000e+00  3.000000e-01 -3.196159e-05
  1.1480000e+00  1.148000e+00  3.000000e-01 -4.302844e-05
  1.2480000e+00  1.248000e+00  3.000000e-01 -5.520305e-05
  1.3480000e+00  1.348000e+00  3.000000e-01 -6.863016e-05
  1.4480000e+00  1.448000e+00  3.000000e-01 -8.349326e-05
  1.5480000e+00  1.548000e+00  3.000000e-01 -1.000120e-04
  1.6480000e+00  1.648000e+00  3.000000e-01 -1.184479e-04
  1.7480000e+00  1.748000e+00  3.000000e-01 -1.391066e-04
  1.8480000e+00  1.848000e+00  3.000000e-01 -1.623206e-04
  1.9480000e+00  1.948000e+00  3.000000e-01 -1.883625e-04
  2.0480000e+00  2.048000e+00  3.000000e-01 -2.171626e-04
  2.1480000e+00  2.148000e+00  3.000000e-01 -2.477324e-04
  2.2480000e+00  2.248000e+00  3.000000e-01 -2.774382e-04
  2.3480000e+00  2.348000e+00  3.000000e-01 -2.992353e-04
  2.4480000e+00  2.448000e+00  3.000000e-01 -2.710396e-04
  2.5480000e+00  2.548000e+00  3.000000e-01 -7.891795e-04
  2.6480000e+00  2.648000e+00  3.000000e-01 -5.640855e-04
  2.7480000e+00  2.748000e+00  3.000000e-01 -5.865918e-04
  2.8480000e+00  2.848000e+00  3.000000e-01 -6.355314e-04
  2.9480000e+00  2.948000e+00  3.000000e-01 -7.015613e-04
  3.0480000e+00  3.048000e+00  3.000000e-01 -7.971784e-04
  3.1480000e+00  3.148000e+00  3.000000e-01    NaN       
  3.2480000e+00  3.248000e+00  3.000000e-01    NaN       
  3.3480000e+00  3.348000e+00  3.000000e-01    NaN       
  3.4480000e+00  3.448000e+00  3.000000e-01    NaN       
  3.5480000e+00  3.548000e+00  3.000000e-01    NaN       
  3.6480000e+00  3.648000e+00  3.000000e-01    NaN       
y
 ******  
 

  ******  dc transfer curves tnom=  25.000 temp=  25.000 *****

   *** source        0:vds =  4.000000e-01    ***

x

         volt    voltage       voltage       current     
                      2             1            vds     
  4.8000000e-02  4.800000e-02  4.000000e-01 -1.176290e-11
  1.4800000e-01  1.480000e-01  4.000000e-01 -9.678036e-11
  2.4800000e-01  2.480000e-01  4.000000e-01 -8.257095e-10
  3.4800000e-01  3.480000e-01  4.000000e-01 -6.773001e-09
  4.4800000e-01  4.480000e-01  4.000000e-01 -5.126737e-08
  5.4800000e-01  5.480000e-01  4.000000e-01 -3.549678e-07
  6.4800000e-01  6.480000e-01  4.000000e-01 -1.921501e-06
  7.4800000e-01  7.480000e-01  4.000000e-01 -6.340686e-06
  8.4800000e-01  8.480000e-01  4.000000e-01 -1.369321e-05
  9.4800000e-01  9.480000e-01  4.000000e-01 -2.308775e-05
  1.0480000e+00  1.048000e+00  4.000000e-01 -3.399542e-05
  1.1480000e+00  1.148000e+00  4.000000e-01 -4.625002e-05
  1.2480000e+00  1.248000e+00  4.000000e-01 -5.983487e-05
  1.3480000e+00  1.348000e+00  4.000000e-01 -7.480431e-05
  1.4480000e+00  1.448000e+00  4.000000e-01 -9.126221e-05
  1.5480000e+00  1.548000e+00  4.000000e-01 -1.093498e-04
  1.6480000e+00  1.648000e+00  4.000000e-01 -1.292308e-04
  1.7480000e+00  1.748000e+00  4.000000e-01 -1.510645e-04
  1.8480000e+00  1.848000e+00  4.000000e-01 -1.749540e-04
  1.9480000e+00  1.948000e+00  4.000000e-01 -2.008563e-04
  2.0480000e+00  2.048000e+00  4.000000e-01 -2.284501e-04
  2.1480000e+00  2.148000e+00  4.000000e-01 -2.569058e-04
  2.2480000e+00  2.248000e+00  4.000000e-01 -2.841743e-04
  2.3480000e+00  2.348000e+00  4.000000e-01 -3.035551e-04
  2.4480000e+00  2.448000e+00  4.000000e-01 -2.706969e-04
  2.5480000e+00  2.548000e+00  4.000000e-01 -7.642372e-04
  2.6480000e+00  2.648000e+00  4.000000e-01 -5.644704e-04
  2.7480000e+00  2.748000e+00  4.000000e-01 -5.874931e-04
  2.8480000e+00  2.848000e+00  4.000000e-01 -6.365331e-04
  2.9480000e+00  2.948000e+00  4.000000e-01 -7.028368e-04
  3.0480000e+00  3.048000e+00  4.000000e-01 -7.997087e-04
  3.1480000e+00  3.148000e+00  4.000000e-01    NaN       
  3.2480000e+00  3.248000e+00  4.000000e-01    NaN       
  3.3480000e+00  3.348000e+00  4.000000e-01    NaN       
  3.4480000e+00  3.448000e+00  4.000000e-01    NaN       
  3.5480000e+00  3.548000e+00  4.000000e-01    NaN       
  3.6480000e+00  3.648000e+00  4.000000e-01    NaN       
y
 ******  
 

  ******  dc transfer curves tnom=  25.000 temp=  25.000 *****

   *** source        0:vds =  5.000000e-01    ***

x

         volt    voltage       voltage       current     
                      2             1            vds     
  4.8000000e-02  4.800000e-02  5.000000e-01 -1.265639e-11
  1.4800000e-01  1.480000e-01  5.000000e-01 -1.030405e-10
  2.4800000e-01  2.480000e-01  5.000000e-01 -8.777208e-10
  3.4800000e-01  3.480000e-01  5.000000e-01 -7.193073e-09
  4.4800000e-01  4.480000e-01  5.000000e-01 -5.436500e-08
  5.4800000e-01  5.480000e-01  5.000000e-01 -3.750400e-07
  6.4800000e-01  6.480000e-01  5.000000e-01 -2.012118e-06
  7.4800000e-01  7.480000e-01  5.000000e-01 -6.582575e-06
  8.4800000e-01  8.480000e-01  5.000000e-01 -1.415932e-05
  9.4800000e-01  9.480000e-01  5.000000e-01 -2.386480e-05
  1.0480000e+00  1.048000e+00  5.000000e-01 -3.519844e-05
  1.1480000e+00  1.148000e+00  5.000000e-01 -4.801420e-05
  1.2480000e+00  1.248000e+00  5.000000e-01 -6.229215e-05
  1.3480000e+00  1.348000e+00  5.000000e-01 -7.805446e-05
  1.4480000e+00  1.448000e+00  5.000000e-01 -9.534873e-05
  1.5480000e+00  1.548000e+00  5.000000e-01 -1.142425e-04
  1.6480000e+00  1.648000e+00  5.000000e-01 -1.348115e-04
  1.7480000e+00  1.748000e+00  5.000000e-01 -1.571171e-04
  1.8480000e+00  1.848000e+00  5.000000e-01 -1.811710e-04
  1.9480000e+00  1.948000e+00  5.000000e-01 -2.068800e-04
  2.0480000e+00  2.048000e+00  5.000000e-01 -2.339468e-04
  2.1480000e+00  2.148000e+00  5.000000e-01 -2.616317e-04
  2.2480000e+00  2.248000e+00  5.000000e-01 -2.879736e-04
  2.3480000e+00  2.348000e+00  5.000000e-01 -3.061712e-04
  2.4480000e+00  2.448000e+00  5.000000e-01 -2.692949e-04
  2.5480000e+00  2.548000e+00  5.000000e-01 -7.436437e-04
  2.6480000e+00  2.648000e+00  5.000000e-01 -5.650206e-04
  2.7480000e+00  2.748000e+00  5.000000e-01 -5.886283e-04
  2.8480000e+00  2.848000e+00  5.000000e-01 -6.378039e-04
  2.9480000e+00  2.948000e+00  5.000000e-01 -7.043769e-04
  3.0480000e+00  3.048000e+00  5.000000e-01 -8.025305e-04
  3.1480000e+00  3.148000e+00  5.000000e-01    NaN       
  3.2480000e+00  3.248000e+00  5.000000e-01    NaN       
  3.3480000e+00  3.348000e+00  5.000000e-01    NaN       
  3.4480000e+00  3.448000e+00  5.000000e-01    NaN       
  3.5480000e+00  3.548000e+00  5.000000e-01    NaN       
  3.6480000e+00  3.648000e+00  5.000000e-01    NaN       
y
 ******  
 

  ******  dc transfer curves tnom=  25.000 temp=  25.000 *****

   *** source        0:vds =  6.000000e-01    ***

x

         volt    voltage       voltage       current     
                      2             1            vds     
  4.8000000e-02  4.800000e-02  6.000000e-01 -1.357337e-11
  1.4800000e-01  1.480000e-01  6.000000e-01 -1.095046e-10
  2.4800000e-01  2.480000e-01  6.000000e-01 -9.314495e-10
  3.4800000e-01  3.480000e-01  6.000000e-01 -7.626543e-09
  4.4800000e-01  4.480000e-01  6.000000e-01 -5.755437e-08
  5.4800000e-01  5.480000e-01  6.000000e-01 -3.955790e-07
  6.4800000e-01  6.480000e-01  6.000000e-01 -2.102928e-06
  7.4800000e-01  7.480000e-01  6.000000e-01 -6.814918e-06
  8.4800000e-01  8.480000e-01  6.000000e-01 -1.457948e-05
  9.4800000e-01  9.480000e-01  6.000000e-01 -2.451366e-05
  1.0480000e+00  1.048000e+00  6.000000e-01 -3.612635e-05
  1.1480000e+00  1.148000e+00  6.000000e-01 -4.927883e-05
  1.2480000e+00  1.248000e+00  6.000000e-01 -6.394989e-05
  1.3480000e+00  1.348000e+00  6.000000e-01 -8.014852e-05
  1.4480000e+00  1.448000e+00  6.000000e-01 -9.789614e-05
  1.5480000e+00  1.548000e+00  6.000000e-01 -1.172229e-04
  1.6480000e+00  1.648000e+00  6.000000e-01 -1.381601e-04
  1.7480000e+00  1.748000e+00  6.000000e-01 -1.607255e-04
  1.8480000e+00  1.848000e+00  6.000000e-01 -1.848962e-04
  1.9480000e+00  1.948000e+00  6.000000e-01 -2.105628e-04
  2.0480000e+00  2.048000e+00  6.000000e-01 -2.374333e-04
  2.1480000e+00  2.148000e+00  6.000000e-01 -2.647854e-04
  2.2480000e+00  2.248000e+00  6.000000e-01 -2.906548e-04
  2.3480000e+00  2.348000e+00  6.000000e-01 -3.080606e-04
  2.4480000e+00  2.448000e+00  6.000000e-01 -2.672477e-04
  2.5480000e+00  2.548000e+00  6.000000e-01 -7.262457e-04
  2.6480000e+00  2.648000e+00  6.000000e-01 -5.656760e-04
  2.7480000e+00  2.748000e+00  6.000000e-01 -5.899070e-04
  2.8480000e+00  2.848000e+00  6.000000e-01 -6.392520e-04
  2.9480000e+00  2.948000e+00  6.000000e-01 -7.061054e-04
  3.0480000e+00  3.048000e+00  6.000000e-01 -8.056001e-04
  3.1480000e+00  3.148000e+00  6.000000e-01    NaN       
  3.2480000e+00  3.248000e+00  6.000000e-01    NaN       
  3.3480000e+00  3.348000e+00  6.000000e-01    NaN       
  3.4480000e+00  3.448000e+00  6.000000e-01    NaN       
  3.5480000e+00  3.548000e+00  6.000000e-01    NaN       
  3.6480000e+00  3.648000e+00  6.000000e-01    NaN       
y
 ******  
 

  ******  dc transfer curves tnom=  25.000 temp=  25.000 *****

   *** source        0:vds =  7.000000e-01    ***

x

         volt    voltage       voltage       current     
                      2             1            vds     
  4.8000000e-02  4.800000e-02  7.000000e-01 -1.451582e-11
  1.4800000e-01  1.480000e-01  7.000000e-01 -1.161902e-10
  2.4800000e-01  2.480000e-01  7.000000e-01 -9.870430e-10
  3.4800000e-01  3.480000e-01  7.000000e-01 -8.074589e-09
  4.4800000e-01  4.480000e-01  7.000000e-01 -6.084439e-08
  5.4800000e-01  5.480000e-01  7.000000e-01 -4.166580e-07
  6.4800000e-01  6.480000e-01  7.000000e-01 -2.194667e-06
  7.4800000e-01  7.480000e-01  7.000000e-01 -7.043242e-06
  8.4800000e-01  8.480000e-01  7.000000e-01 -1.497712e-05
  9.4800000e-01  9.480000e-01  7.000000e-01 -2.510128e-05
  1.0480000e+00  1.048000e+00  7.000000e-01 -3.692855e-05
  1.1480000e+00  1.148000e+00  7.000000e-01 -5.032332e-05
  1.2480000e+00  1.248000e+00  7.000000e-01 -6.526260e-05
  1.3480000e+00  1.348000e+00  7.000000e-01 -8.174746e-05
  1.4480000e+00  1.448000e+00  7.000000e-01 -9.978525e-05
  1.5480000e+00  1.548000e+00  7.000000e-01 -1.193867e-04
  1.6480000e+00  1.648000e+00  7.000000e-01 -1.405609e-04
  1.7480000e+00  1.748000e+00  7.000000e-01 -1.633036e-04
  1.8480000e+00  1.848000e+00  7.000000e-01 -1.875746e-04
  1.9480000e+00  1.948000e+00  7.000000e-01 -2.132539e-04
  2.0480000e+00  2.048000e+00  7.000000e-01 -2.400460e-04
  2.1480000e+00  2.148000e+00  7.000000e-01 -2.672254e-04
  2.2480000e+00  2.248000e+00  7.000000e-01 -2.927976e-04
  2.3480000e+00  2.348000e+00  7.000000e-01 -3.095690e-04
  2.4480000e+00  2.448000e+00  7.000000e-01 -2.647051e-04
  2.5480000e+00  2.548000e+00  7.000000e-01 -7.113328e-04
  2.6480000e+00  2.648000e+00  7.000000e-01 -5.664075e-04
  2.7480000e+00  2.748000e+00  7.000000e-01 -5.912814e-04
  2.8480000e+00  2.848000e+00  7.000000e-01 -6.408236e-04
  2.9480000e+00  2.948000e+00  7.000000e-01 -7.079742e-04
  3.0480000e+00  3.048000e+00  7.000000e-01 -8.088914e-04
  3.1480000e+00  3.148000e+00  7.000000e-01    NaN       
  3.2480000e+00  3.248000e+00  7.000000e-01    NaN       
  3.3480000e+00  3.348000e+00  7.000000e-01    NaN       
  3.4480000e+00  3.448000e+00  7.000000e-01    NaN       
  3.5480000e+00  3.548000e+00  7.000000e-01    NaN       
  3.6480000e+00  3.648000e+00  7.000000e-01    NaN       
y
 ******  
 

  ******  dc transfer curves tnom=  25.000 temp=  25.000 *****

   *** source        0:vds =  8.000000e-01    ***

x

         volt    voltage       voltage       current     
                      2             1            vds     
  4.8000000e-02  4.800000e-02  8.000000e-01 -1.548514e-11
  1.4800000e-01  1.480000e-01  8.000000e-01 -1.231092e-10
  2.4800000e-01  2.480000e-01  8.000000e-01 -1.044602e-09
  3.4800000e-01  3.480000e-01  8.000000e-01 -8.538000e-09
  4.4800000e-01  4.480000e-01  8.000000e-01 -6.424080e-08
  5.4800000e-01  5.480000e-01  8.000000e-01 -4.383184e-07
  6.4800000e-01  6.480000e-01  8.000000e-01 -2.287693e-06
  7.4800000e-01  7.480000e-01  8.000000e-01 -7.270096e-06
  8.4800000e-01  8.480000e-01  8.000000e-01 -1.536239e-05
  9.4800000e-01  9.480000e-01  8.000000e-01 -2.565477e-05
  1.0480000e+00  1.048000e+00  8.000000e-01 -3.766208e-05
  1.1480000e+00  1.148000e+00  8.000000e-01 -5.125068e-05
  1.2480000e+00  1.248000e+00  8.000000e-01 -6.639604e-05
  1.3480000e+00  1.348000e+00  8.000000e-01 -8.309413e-05
  1.4480000e+00  1.448000e+00  8.000000e-01 -1.013438e-04
  1.5480000e+00  1.548000e+00  8.000000e-01 -1.211446e-04
  1.6480000e+00  1.648000e+00  8.000000e-01 -1.424931e-04
  1.7480000e+00  1.748000e+00  8.000000e-01 -1.653725e-04
  1.8480000e+00  1.848000e+00  8.000000e-01 -1.897320e-04
  1.9480000e+00  1.948000e+00  8.000000e-01 -2.154439e-04
  2.0480000e+00  2.048000e+00  8.000000e-01 -2.422066e-04
  2.1480000e+00  2.148000e+00  8.000000e-01 -2.692839e-04
  2.2480000e+00  2.248000e+00  8.000000e-01 -2.946401e-04
  2.3480000e+00  2.348000e+00  8.000000e-01 -3.108486e-04
  2.4480000e+00  2.448000e+00  8.000000e-01 -2.617222e-04
  2.5480000e+00  2.548000e+00  8.000000e-01 -6.984173e-04
  2.6480000e+00  2.648000e+00  8.000000e-01 -5.671988e-04
  2.7480000e+00  2.748000e+00  8.000000e-01 -5.927236e-04
  2.8480000e+00  2.848000e+00  8.000000e-01 -6.424856e-04
  2.9480000e+00  2.948000e+00  8.000000e-01 -7.099515e-04
  3.0480000e+00  3.048000e+00  8.000000e-01 -8.123909e-04
  3.1480000e+00  3.148000e+00  8.000000e-01    NaN       
  3.2480000e+00  3.248000e+00  8.000000e-01    NaN       
  3.3480000e+00  3.348000e+00  8.000000e-01    NaN       
  3.4480000e+00  3.448000e+00  8.000000e-01    NaN       
  3.5480000e+00  3.548000e+00  8.000000e-01    NaN       
  3.6480000e+00  3.648000e+00  8.000000e-01    NaN       
y
 ******  
 

  ******  dc transfer curves tnom=  25.000 temp=  25.000 *****

   *** source        0:vds =  9.000000e-01    ***

x

         volt    voltage       voltage       current     
                      2             1            vds     
  4.8000000e-02  4.800000e-02  9.000000e-01 -1.648247e-11
  1.4800000e-01  1.480000e-01  9.000000e-01 -1.302717e-10
  2.4800000e-01  2.480000e-01  9.000000e-01 -1.104211e-09
  3.4800000e-01  3.480000e-01  9.000000e-01 -9.017417e-09
  4.4800000e-01  4.480000e-01  9.000000e-01 -6.774807e-08
  5.4800000e-01  5.480000e-01  9.000000e-01 -4.605886e-07
  6.4800000e-01  6.480000e-01  9.000000e-01 -2.382206e-06
  7.4800000e-01  7.480000e-01  9.000000e-01 -7.496840e-06
  8.4800000e-01  8.480000e-01  9.000000e-01 -1.574053e-05
  9.4800000e-01  9.480000e-01  9.000000e-01 -2.618755e-05
  1.0480000e+00  1.048000e+00  9.000000e-01 -3.835417e-05
  1.1480000e+00  1.148000e+00  9.000000e-01 -5.210838e-05
  1.2480000e+00  1.248000e+00  9.000000e-01 -6.742465e-05
  1.3480000e+00  1.348000e+00  9.000000e-01 -8.429552e-05
  1.4480000e+00  1.448000e+00  9.000000e-01 -1.027143e-04
  1.5480000e+00  1.548000e+00  9.000000e-01 -1.226737e-04
  1.6480000e+00  1.648000e+00  9.000000e-01 -1.441622e-04
  1.7480000e+00  1.748000e+00  9.000000e-01 -1.671553e-04
  1.8480000e+00  1.848000e+00  9.000000e-01 -1.915951e-04
  1.9480000e+00  1.948000e+00  9.000000e-01 -2.173476e-04
  2.0480000e+00  2.048000e+00  9.000000e-01 -2.441043e-04
  2.1480000e+00  2.148000e+00  9.000000e-01 -2.711153e-04
  2.2480000e+00  2.248000e+00  9.000000e-01 -2.962976e-04
  2.3480000e+00  2.348000e+00  9.000000e-01 -3.119762e-04
  2.4480000e+00  2.448000e+00  9.000000e-01 -2.583118e-04
  2.5480000e+00  2.548000e+00  9.000000e-01 -6.871431e-04
  2.6480000e+00  2.648000e+00  9.000000e-01 -5.680400e-04
  2.7480000e+00  2.748000e+00  9.000000e-01 -5.942165e-04
  2.8480000e+00  2.848000e+00  9.000000e-01 -6.442162e-04
  2.9480000e+00  2.948000e+00  9.000000e-01 -7.120152e-04
  3.0480000e+00  3.048000e+00  9.000000e-01 -8.160950e-04
  3.1480000e+00  3.148000e+00  9.000000e-01    NaN       
  3.2480000e+00  3.248000e+00  9.000000e-01    NaN       
  3.3480000e+00  3.348000e+00  9.000000e-01    NaN       
  3.4480000e+00  3.448000e+00  9.000000e-01    NaN       
  3.5480000e+00  3.548000e+00  9.000000e-01    NaN       
  3.6480000e+00  3.648000e+00  9.000000e-01    NaN       
y
 ******  
 

  ******  dc transfer curves tnom=  25.000 temp=  25.000 *****

   *** source        0:vds =  1.000000e+00    ***

x

         volt    voltage       voltage       current     
                      2             1            vds     
  4.8000000e-02  4.800000e-02  1.000000e+00 -1.750888e-11
  1.4800000e-01  1.480000e-01  1.000000e+00 -1.376868e-10
  2.4800000e-01  2.480000e-01  1.000000e+00 -1.165944e-09
  3.4800000e-01  3.480000e-01  1.000000e+00 -9.513420e-09
  4.4800000e-01  4.480000e-01  1.000000e+00 -7.137014e-08
  5.4800000e-01  5.480000e-01  1.000000e+00 -4.834909e-07
  6.4800000e-01  6.480000e-01  1.000000e+00 -2.478333e-06
  7.4800000e-01  7.480000e-01  1.000000e+00 -7.724277e-06
  8.4800000e-01  8.480000e-01  1.000000e+00 -1.611456e-05
  9.4800000e-01  9.480000e-01  1.000000e+00 -2.670714e-05
  1.0480000e+00  1.048000e+00  1.000000e+00 -3.901956e-05
  1.1480000e+00  1.148000e+00  1.000000e+00 -5.292151e-05
  1.2480000e+00  1.248000e+00  1.000000e+00 -6.838691e-05
  1.3480000e+00  1.348000e+00  1.000000e+00 -8.540593e-05
  1.4480000e+00  1.448000e+00  1.000000e+00 -1.039682e-04
  1.5480000e+00  1.548000e+00  1.000000e+00 -1.240616e-04
  1.6480000e+00  1.648000e+00  1.000000e+00 -1.456697e-04
  1.7480000e+00  1.748000e+00  1.000000e+00 -1.687623e-04
  1.8480000e+00  1.848000e+00  1.000000e+00 -1.932765e-04
  1.9480000e+00  1.948000e+00  1.000000e+00 -2.190730e-04
  2.0480000e+00  2.048000e+00  1.000000e+00 -2.458361e-04
  2.1480000e+00  2.148000e+00  1.000000e+00 -2.728005e-04
  2.2480000e+00  2.248000e+00  1.000000e+00 -2.978324e-04
  2.3480000e+00  2.348000e+00  1.000000e+00 -3.129949e-04
  2.4480000e+00  2.448000e+00  1.000000e+00 -2.544630e-04
  2.5480000e+00  2.548000e+00  1.000000e+00 -6.772399e-04
  2.6480000e+00  2.648000e+00  1.000000e+00 -5.689242e-04
  2.7480000e+00  2.748000e+00  1.000000e+00 -5.957488e-04
  2.8480000e+00  2.848000e+00  1.000000e+00 -6.460007e-04
  2.9480000e+00  2.948000e+00  1.000000e+00 -7.141498e-04
  3.0480000e+00  3.048000e+00  1.000000e+00 -8.200082e-04
  3.1480000e+00  3.148000e+00  1.000000e+00    NaN       
  3.2480000e+00  3.248000e+00  1.000000e+00    NaN       
  3.3480000e+00  3.348000e+00  1.000000e+00    NaN       
  3.4480000e+00  3.448000e+00  1.000000e+00    NaN       
  3.5480000e+00  3.548000e+00  1.000000e+00    NaN       
  3.6480000e+00  3.648000e+00  1.000000e+00    NaN       
y
 ******  
 

  ******  dc transfer curves tnom=  25.000 temp=  25.000 *****

   *** source        0:vds =  1.100000e+00    ***

x

         volt    voltage       voltage       current     
                      2             1            vds     
  4.8000000e-02  4.800000e-02  1.100000e+00 -1.856540e-11
  1.4800000e-01  1.480000e-01  1.100000e+00 -1.453633e-10
  2.4800000e-01  2.480000e-01  1.100000e+00 -1.229876e-09
  3.4800000e-01  3.480000e-01  1.100000e+00 -1.002656e-08
  4.4800000e-01  4.480000e-01  1.100000e+00 -7.511071e-08
  5.4800000e-01  5.480000e-01  1.100000e+00 -5.070449e-07
  6.4800000e-01  6.480000e-01  1.100000e+00 -2.576159e-06
  7.4800000e-01  7.480000e-01  1.100000e+00 -7.952912e-06
  8.4800000e-01  8.480000e-01  1.100000e+00 -1.648634e-05
  9.4800000e-01  9.480000e-01  1.100000e+00 -2.721807e-05
  1.0480000e+00  1.048000e+00  1.100000e+00 -3.966701e-05
  1.1480000e+00  1.148000e+00  1.100000e+00 -5.370466e-05
  1.2480000e+00  1.248000e+00  1.100000e+00 -6.930476e-05
  1.3480000e+00  1.348000e+00  1.100000e+00 -8.645585e-05
  1.4480000e+00  1.448000e+00  1.100000e+00 -1.051450e-04
  1.5480000e+00  1.548000e+00  1.100000e+00 -1.253568e-04
  1.6480000e+00  1.648000e+00  1.100000e+00 -1.470710e-04
  1.7480000e+00  1.748000e+00  1.100000e+00 -1.702538e-04
  1.8480000e+00  1.848000e+00  1.100000e+00 -1.948381e-04
  1.9480000e+00  1.948000e+00  1.100000e+00 -2.206799e-04
  2.0480000e+00  2.048000e+00  1.100000e+00 -2.474564e-04
  2.1480000e+00  2.148000e+00  1.100000e+00 -2.743860e-04
  2.2480000e+00  2.248000e+00  1.100000e+00 -2.992812e-04
  2.3480000e+00  2.348000e+00  1.100000e+00 -3.139302e-04
  2.4480000e+00  2.448000e+00  1.100000e+00 -2.501497e-04
  2.5480000e+00  2.548000e+00  1.100000e+00 -6.684964e-04
  2.6480000e+00  2.648000e+00  1.100000e+00 -5.698470e-04
  2.7480000e+00  2.748000e+00  1.100000e+00 -5.973128e-04
  2.8480000e+00  2.848000e+00  1.100000e+00 -6.478285e-04
  2.9480000e+00  2.948000e+00  1.100000e+00 -7.163441e-04
  3.0480000e+00  3.048000e+00  1.100000e+00 -8.241437e-04
  3.1480000e+00  3.148000e+00  1.100000e+00    NaN       
  3.2480000e+00  3.248000e+00  1.100000e+00    NaN       
  3.3480000e+00  3.348000e+00  1.100000e+00    NaN       
  3.4480000e+00  3.448000e+00  1.100000e+00    NaN       
  3.5480000e+00  3.548000e+00  1.100000e+00    NaN       
  3.6480000e+00  3.648000e+00  1.100000e+00    NaN       
y
 ******  
 

  ******  dc transfer curves tnom=  25.000 temp=  25.000 *****

   *** source        0:vds =  1.200000e+00    ***

x

         volt    voltage       voltage       current     
                      2             1            vds     
  4.8000000e-02  4.800000e-02  1.200000e+00 -1.965305e-11
  1.4800000e-01  1.480000e-01  1.200000e+00 -1.533102e-10
  2.4800000e-01  2.480000e-01  1.200000e+00 -1.296079e-09
  3.4800000e-01  3.480000e-01  1.200000e+00 -1.055739e-08
  4.4800000e-01  4.480000e-01  1.200000e+00 -7.897338e-08
  5.4800000e-01  5.480000e-01  1.200000e+00 -5.312683e-07
  6.4800000e-01  6.480000e-01  1.200000e+00 -2.675748e-06
  7.4800000e-01  7.480000e-01  1.200000e+00 -8.183080e-06
  8.4800000e-01  8.480000e-01  1.200000e+00 -1.685708e-05
  9.4800000e-01  9.480000e-01  1.200000e+00 -2.772325e-05
  1.0480000e+00  1.048000e+00  1.200000e+00 -4.030203e-05
  1.1480000e+00  1.148000e+00  1.200000e+00 -5.446688e-05
  1.2480000e+00  1.248000e+00  1.200000e+00 -7.019163e-05
  1.3480000e+00  1.348000e+00  1.200000e+00 -8.746373e-05
  1.4480000e+00  1.448000e+00  1.200000e+00 -1.062684e-04
  1.5480000e+00  1.548000e+00  1.200000e+00 -1.265879e-04
  1.6480000e+00  1.648000e+00  1.200000e+00 -1.483992e-04
  1.7480000e+00  1.748000e+00  1.200000e+00 -1.716656e-04
  1.8480000e+00  1.848000e+00  1.200000e+00 -1.963167e-04
  1.9480000e+00  1.948000e+00  1.200000e+00 -2.222043e-04
  2.0480000e+00  2.048000e+00  1.200000e+00 -2.489985e-04
  2.1480000e+00  2.148000e+00  1.200000e+00 -2.759005e-04
  2.2480000e+00  2.248000e+00  1.200000e+00 -3.006670e-04
  2.3480000e+00  2.348000e+00  1.200000e+00 -3.147980e-04
  2.4480000e+00  2.448000e+00  1.200000e+00 -2.453336e-04
  2.5480000e+00  2.548000e+00  1.200000e+00 -6.607443e-04
  2.6480000e+00  2.648000e+00  1.200000e+00 -5.708046e-04
  2.7480000e+00  2.748000e+00  1.200000e+00 -5.989033e-04
  2.8480000e+00  2.848000e+00  1.200000e+00 -6.496922e-04
  2.9480000e+00  2.948000e+00  1.200000e+00 -7.185898e-04
  3.0480000e+00  3.048000e+00  1.200000e+00 -8.285244e-04
  3.1480000e+00  3.148000e+00  1.200000e+00    NaN       
  3.2480000e+00  3.248000e+00  1.200000e+00    NaN       
  3.3480000e+00  3.348000e+00  1.200000e+00    NaN       
  3.4480000e+00  3.448000e+00  1.200000e+00    NaN       
  3.5480000e+00  3.548000e+00  1.200000e+00    NaN       
  3.6480000e+00  3.648000e+00  1.200000e+00    NaN       
y
 ******  
 

  ******  dc transfer curves tnom=  25.000 temp=  25.000 *****

   *** source        0:vds =  1.300000e+00    ***

x

         volt    voltage       voltage       current     
                      2             1            vds     
  4.8000000e-02  4.800000e-02  1.300000e+00 -2.077286e-11
  1.4800000e-01  1.480000e-01  1.300000e+00 -1.615363e-10
  2.4800000e-01  2.480000e-01  1.300000e+00 -1.364627e-09
  3.4800000e-01  3.480000e-01  1.300000e+00 -1.110645e-08
  4.4800000e-01  4.480000e-01  1.300000e+00 -8.296175e-08
  5.4800000e-01  5.480000e-01  1.300000e+00 -5.561780e-07
  6.4800000e-01  6.480000e-01  1.300000e+00 -2.777149e-06
  7.4800000e-01  7.480000e-01  1.300000e+00 -8.415015e-06
  8.4800000e-01  8.480000e-01  1.300000e+00 -1.722761e-05
  9.4800000e-01  9.480000e-01  1.300000e+00 -2.822463e-05
  1.0480000e+00  1.048000e+00  1.300000e+00 -4.092829e-05
  1.1480000e+00  1.148000e+00  1.300000e+00 -5.521407e-05
  1.2480000e+00  1.248000e+00  1.300000e+00 -7.105620e-05
  1.3480000e+00  1.348000e+00  1.300000e+00 -8.844138e-05
  1.4480000e+00  1.448000e+00  1.300000e+00 -1.073535e-04
  1.5480000e+00  1.548000e+00  1.300000e+00 -1.277730e-04
  1.6480000e+00  1.648000e+00  1.300000e+00 -1.496749e-04
  1.7480000e+00  1.748000e+00  1.300000e+00 -1.730203e-04
  1.8480000e+00  1.848000e+00  1.300000e+00 -1.977357e-04
  1.9480000e+00  1.948000e+00  1.300000e+00 -2.236692e-04
  2.0480000e+00  2.048000e+00  1.300000e+00 -2.504835e-04
  2.1480000e+00  2.148000e+00  1.300000e+00 -2.773625e-04
  2.2480000e+00  2.248000e+00  1.300000e+00 -3.020047e-04
  2.3480000e+00  2.348000e+00  1.300000e+00 -3.156088e-04
  2.4480000e+00  2.448000e+00  1.300000e+00 -2.399650e-04
  2.5480000e+00  2.548000e+00  1.300000e+00 -6.538473e-04
  2.6480000e+00  2.648000e+00  1.300000e+00 -5.717944e-04
  2.7480000e+00  2.748000e+00  1.300000e+00 -6.005161e-04
  2.8480000e+00  2.848000e+00  1.300000e+00 -6.515863e-04
  2.9480000e+00  2.948000e+00  1.300000e+00 -7.208806e-04
  3.0480000e+00  3.048000e+00  1.300000e+00 -8.331856e-04
  3.1480000e+00  3.148000e+00  1.300000e+00    NaN       
  3.2480000e+00  3.248000e+00  1.300000e+00    NaN       
  3.3480000e+00  3.348000e+00  1.300000e+00    NaN       
  3.4480000e+00  3.448000e+00  1.300000e+00    NaN       
  3.5480000e+00  3.548000e+00  1.300000e+00    NaN       
  3.6480000e+00  3.648000e+00  1.300000e+00    NaN       
y
 ******  
 

  ******  dc transfer curves tnom=  25.000 temp=  25.000 *****

   *** source        0:vds =  1.400000e+00    ***

x

         volt    voltage       voltage       current     
                      2             1            vds     
  4.8000000e-02  4.800000e-02  1.400000e+00 -2.192587e-11
  1.4800000e-01  1.480000e-01  1.400000e+00 -1.700505e-10
  2.4800000e-01  2.480000e-01  1.400000e+00 -1.435594e-09
  3.4800000e-01  3.480000e-01  1.400000e+00 -1.167429e-08
  4.4800000e-01  4.480000e-01  1.400000e+00 -8.707938e-08
  5.4800000e-01  5.480000e-01  1.400000e+00 -5.817903e-07
  6.4800000e-01  6.480000e-01  1.400000e+00 -2.880400e-06
  7.4800000e-01  7.480000e-01  1.400000e+00 -8.648882e-06
  8.4800000e-01  8.480000e-01  1.400000e+00 -1.759850e-05
  9.4800000e-01  9.480000e-01  1.400000e+00 -2.872359e-05
  1.0480000e+00  1.048000e+00  1.400000e+00 -4.154829e-05
  1.1480000e+00  1.148000e+00  1.400000e+00 -5.595029e-05
  1.2480000e+00  1.248000e+00  1.400000e+00 -7.190434e-05
  1.3480000e+00  1.348000e+00  1.400000e+00 -8.939670e-05
  1.4480000e+00  1.448000e+00  1.400000e+00 -1.084102e-04
  1.5480000e+00  1.548000e+00  1.400000e+00 -1.289242e-04
  1.6480000e+00  1.648000e+00  1.400000e+00 -1.509120e-04
  1.7480000e+00  1.748000e+00  1.400000e+00 -1.743327e-04
  1.8480000e+00  1.848000e+00  1.400000e+00 -1.991105e-04
  1.9480000e+00  1.948000e+00  1.400000e+00 -2.250896e-04
  2.0480000e+00  2.048000e+00  1.400000e+00 -2.519257e-04
  2.1480000e+00  2.148000e+00  1.400000e+00 -2.787845e-04
  2.2480000e+00  2.248000e+00  1.400000e+00 -3.033046e-04
  2.3480000e+00  2.348000e+00  1.400000e+00 -3.163694e-04
  2.4480000e+00  2.448000e+00  1.400000e+00 -2.339825e-04
  2.5480000e+00  2.548000e+00  1.400000e+00 -6.476937e-04
  2.6480000e+00  2.648000e+00  1.400000e+00 -5.728141e-04
  2.7480000e+00  2.748000e+00  1.400000e+00 -6.021485e-04
  2.8480000e+00  2.848000e+00  1.400000e+00 -6.535064e-04
  2.9480000e+00  2.948000e+00  1.400000e+00 -7.232117e-04
  3.0480000e+00  3.048000e+00  1.400000e+00 -8.381804e-04
  3.1480000e+00  3.148000e+00  1.400000e+00    NaN       
  3.2480000e+00  3.248000e+00  1.400000e+00    NaN       
  3.3480000e+00  3.348000e+00  1.400000e+00    NaN       
  3.4480000e+00  3.448000e+00  1.400000e+00    NaN       
  3.5480000e+00  3.548000e+00  1.400000e+00    NaN       
  3.6480000e+00  3.648000e+00  1.400000e+00    NaN       
y
 ******  
 

  ******  dc transfer curves tnom=  25.000 temp=  25.000 *****

   *** source        0:vds =  1.500000e+00    ***

x

         volt    voltage       voltage       current     
                      2             1            vds     
  4.8000000e-02  4.800000e-02  1.500000e+00 -2.311316e-11
  1.4800000e-01  1.480000e-01  1.500000e+00 -1.788622e-10
  2.4800000e-01  2.480000e-01  1.500000e+00 -1.509055e-09
  3.4800000e-01  3.480000e-01  1.500000e+00 -1.226148e-08
  4.4800000e-01  4.480000e-01  1.500000e+00 -9.132993e-08
  5.4800000e-01  5.480000e-01  1.500000e+00 -6.081215e-07
  6.4800000e-01  6.480000e-01  1.500000e+00 -2.985536e-06
  7.4800000e-01  7.480000e-01  1.500000e+00 -8.884803e-06
  8.4800000e-01  8.480000e-01  1.500000e+00 -1.797019e-05
  9.4800000e-01  9.480000e-01  1.500000e+00 -2.922110e-05
  1.0480000e+00  1.048000e+00  1.500000e+00 -4.216383e-05
  1.1480000e+00  1.148000e+00  1.500000e+00 -5.667839e-05
  1.2480000e+00  1.248000e+00  1.500000e+00 -7.274017e-05
  1.3480000e+00  1.348000e+00  1.500000e+00 -9.033520e-05
  1.4480000e+00  1.448000e+00  1.500000e+00 -1.094457e-04
  1.5480000e+00  1.548000e+00  1.500000e+00 -1.300498e-04
  1.6480000e+00  1.648000e+00  1.500000e+00 -1.521198e-04
  1.7480000e+00  1.748000e+00  1.500000e+00 -1.756130e-04
  1.8480000e+00  1.848000e+00  1.500000e+00 -2.004516e-04
  1.9480000e+00  1.948000e+00  1.500000e+00 -2.264761e-04
  2.0480000e+00  2.048000e+00  1.500000e+00 -2.533349e-04
  2.1480000e+00  2.148000e+00  1.500000e+00 -2.801754e-04
  2.2480000e+00  2.248000e+00  1.500000e+00 -3.045738e-04
  2.3480000e+00  2.348000e+00  1.500000e+00 -3.170844e-04
  2.4480000e+00  2.448000e+00  1.500000e+00 -2.273115e-04
  2.5480000e+00  2.548000e+00  1.500000e+00 -6.421907e-04
  2.6480000e+00  2.648000e+00  1.500000e+00 -5.738619e-04
  2.7480000e+00  2.748000e+00  1.500000e+00 -6.037980e-04
  2.8480000e+00  2.848000e+00  1.500000e+00 -6.554493e-04
  2.9480000e+00  2.948000e+00  1.500000e+00 -7.255795e-04
  3.0480000e+00  3.048000e+00  1.500000e+00 -8.435907e-04
  3.1480000e+00  3.148000e+00  1.500000e+00    NaN       
  3.2480000e+00  3.248000e+00  1.500000e+00    NaN       
  3.3480000e+00  3.348000e+00  1.500000e+00    NaN       
  3.4480000e+00  3.448000e+00  1.500000e+00    NaN       
  3.5480000e+00  3.548000e+00  1.500000e+00    NaN       
  3.6480000e+00  3.648000e+00  1.500000e+00    NaN       
y
 ******  
 

  ******  dc transfer curves tnom=  25.000 temp=  25.000 *****

   *** source        0:vds =  1.600000e+00    ***

x

         volt    voltage       voltage       current     
                      2             1            vds     
  4.8000000e-02  4.800000e-02  1.600000e+00 -2.433582e-11
  1.4800000e-01  1.480000e-01  1.600000e+00 -1.879807e-10
  2.4800000e-01  2.480000e-01  1.600000e+00 -1.585088e-09
  3.4800000e-01  3.480000e-01  1.600000e+00 -1.286858e-08
  4.4800000e-01  4.480000e-01  1.600000e+00 -9.571708e-08
  5.4800000e-01  5.480000e-01  1.600000e+00 -6.351875e-07
  6.4800000e-01  6.480000e-01  1.600000e+00 -3.092587e-06
  7.4800000e-01  7.480000e-01  1.600000e+00 -9.122872e-06
  8.4800000e-01  8.480000e-01  1.600000e+00 -1.834298e-05
  9.4800000e-01  9.480000e-01  1.600000e+00 -2.971789e-05
  1.0480000e+00  1.048000e+00  1.600000e+00 -4.277624e-05
  1.1480000e+00  1.148000e+00  1.600000e+00 -5.740043e-05
  1.2480000e+00  1.248000e+00  1.600000e+00 -7.356664e-05
  1.3480000e+00  1.348000e+00  1.600000e+00 -9.126082e-05
  1.4480000e+00  1.448000e+00  1.600000e+00 -1.104647e-04
  1.5480000e+00  1.548000e+00  1.600000e+00 -1.311556e-04
  1.6480000e+00  1.648000e+00  1.600000e+00 -1.533049e-04
  1.7480000e+00  1.748000e+00  1.600000e+00 -1.768686e-04
  1.8480000e+00  1.848000e+00  1.600000e+00 -2.017666e-04
  1.9480000e+00  1.948000e+00  1.600000e+00 -2.278362e-04
  2.0480000e+00  2.048000e+00  1.600000e+00 -2.547183e-04
  2.1480000e+00  2.148000e+00  1.600000e+00 -2.815413e-04
  2.2480000e+00  2.248000e+00  1.600000e+00 -3.058177e-04
  2.3480000e+00  2.348000e+00  1.600000e+00 -3.177569e-04
  2.4480000e+00  2.448000e+00  1.600000e+00 -2.198622e-04
  2.5480000e+00  2.548000e+00  1.600000e+00 -6.372606e-04
  2.6480000e+00  2.648000e+00  1.600000e+00 -5.749362e-04
  2.7480000e+00  2.748000e+00  1.600000e+00 -6.054631e-04
  2.8480000e+00  2.848000e+00  1.600000e+00 -6.574125e-04
  2.9480000e+00  2.948000e+00  1.600000e+00 -7.279812e-04
  3.0480000e+00  3.048000e+00  1.600000e+00 -8.495491e-04
  3.1480000e+00  3.148000e+00  1.600000e+00    NaN       
  3.2480000e+00  3.248000e+00  1.600000e+00    NaN       
  3.3480000e+00  3.348000e+00  1.600000e+00    NaN       
  3.4480000e+00  3.448000e+00  1.600000e+00    NaN       
  3.5480000e+00  3.548000e+00  1.600000e+00    NaN       
  3.6480000e+00  3.648000e+00  1.600000e+00    NaN       
y
 ******  
 

  ******  dc transfer curves tnom=  25.000 temp=  25.000 *****

   *** source        0:vds =  1.700000e+00    ***

x

         volt    voltage       voltage       current     
                      2             1            vds     
  4.8000000e-02  4.800000e-02  1.700000e+00 -2.559496e-11
  1.4800000e-01  1.480000e-01  1.700000e+00 -1.974156e-10
  2.4800000e-01  2.480000e-01  1.700000e+00 -1.663771e-09
  3.4800000e-01  3.480000e-01  1.700000e+00 -1.349619e-08
  4.4800000e-01  4.480000e-01  1.700000e+00 -1.002446e-07
  5.4800000e-01  5.480000e-01  1.700000e+00 -6.630042e-07
  6.4800000e-01  6.480000e-01  1.700000e+00 -3.201578e-06
  7.4800000e-01  7.480000e-01  1.700000e+00 -9.363159e-06
  8.4800000e-01  8.480000e-01  1.700000e+00 -1.871711e-05
  9.4800000e-01  9.480000e-01  1.700000e+00 -3.021450e-05
  1.0480000e+00  1.048000e+00  1.700000e+00 -4.338649e-05
  1.1480000e+00  1.148000e+00  1.700000e+00 -5.811795e-05
  1.2480000e+00  1.248000e+00  1.700000e+00 -7.438594e-05
  1.3480000e+00  1.348000e+00  1.700000e+00 -9.217646e-05
  1.4480000e+00  1.448000e+00  1.700000e+00 -1.114709e-04
  1.5480000e+00  1.548000e+00  1.700000e+00 -1.322460e-04
  1.6480000e+00  1.648000e+00  1.700000e+00 -1.544724e-04
  1.7480000e+00  1.748000e+00  1.700000e+00 -1.781047e-04
  1.8480000e+00  1.848000e+00  1.700000e+00 -2.030611e-04
  1.9480000e+00  1.948000e+00  1.700000e+00 -2.291753e-04
  2.0480000e+00  2.048000e+00  1.700000e+00 -2.560810e-04
  2.1480000e+00  2.148000e+00  1.700000e+00 -2.828871e-04
  2.2480000e+00  2.248000e+00  1.700000e+00 -3.070400e-04
  2.3480000e+00  2.348000e+00  1.700000e+00 -3.183886e-04
  2.4480000e+00  2.448000e+00  1.700000e+00 -2.115263e-04
  2.5480000e+00  2.548000e+00  1.700000e+00 -6.328380e-04
  2.6480000e+00  2.648000e+00  1.700000e+00 -5.760355e-04
  2.7480000e+00  2.748000e+00  1.700000e+00 -6.071422e-04
  2.8480000e+00  2.848000e+00  1.700000e+00 -6.593940e-04
  2.9480000e+00  2.948000e+00  1.700000e+00 -7.304147e-04
  3.0480000e+00  3.048000e+00  1.700000e+00 -8.562920e-04
  3.1480000e+00  3.148000e+00  1.700000e+00    NaN       
  3.2480000e+00  3.248000e+00  1.700000e+00    NaN       
  3.3480000e+00  3.348000e+00  1.700000e+00    NaN       
  3.4480000e+00  3.448000e+00  1.700000e+00    NaN       
  3.5480000e+00  3.548000e+00  1.700000e+00    NaN       
  3.6480000e+00  3.648000e+00  1.700000e+00    NaN       
y
 ******  
 

  ******  dc transfer curves tnom=  25.000 temp=  25.000 *****

   *** source        0:vds =  1.800000e+00    ***

x

         volt    voltage       voltage       current     
                      2             1            vds     
  4.8000000e-02  4.800000e-02  1.800000e+00 -2.689175e-11
  1.4800000e-01  1.480000e-01  1.800000e+00 -2.071769e-10
  2.4800000e-01  2.480000e-01  1.800000e+00 -1.745186e-09
  3.4800000e-01  3.480000e-01  1.800000e+00 -1.414491e-08
  4.4800000e-01  4.480000e-01  1.800000e+00 -1.049163e-07
  5.4800000e-01  5.480000e-01  1.800000e+00 -6.915877e-07
  6.4800000e-01  6.480000e-01  1.800000e+00 -3.312534e-06
  7.4800000e-01  7.480000e-01  1.800000e+00 -9.605720e-06
  8.4800000e-01  8.480000e-01  1.800000e+00 -1.909278e-05
  9.4800000e-01  9.480000e-01  1.800000e+00 -3.071135e-05
  1.0480000e+00  1.048000e+00  1.800000e+00 -4.399533e-05
  1.1480000e+00  1.148000e+00  1.800000e+00 -5.883212e-05
  1.2480000e+00  1.248000e+00  1.800000e+00 -7.519972e-05
  1.3480000e+00  1.348000e+00  1.800000e+00 -9.308429e-05
  1.4480000e+00  1.448000e+00  1.800000e+00 -1.124670e-04
  1.5480000e+00  1.548000e+00  1.800000e+00 -1.333242e-04
  1.6480000e+00  1.648000e+00  1.800000e+00 -1.556257e-04
  1.7480000e+00  1.748000e+00  1.800000e+00 -1.793252e-04
  1.8480000e+00  1.848000e+00  1.800000e+00 -2.043391e-04
  1.9480000e+00  1.948000e+00  1.800000e+00 -2.304976e-04
  2.0480000e+00  2.048000e+00  1.800000e+00 -2.574269e-04
  2.1480000e+00  2.148000e+00  1.800000e+00 -2.842161e-04
  2.2480000e+00  2.248000e+00  1.800000e+00 -3.082436e-04
  2.3480000e+00  2.348000e+00  1.800000e+00 -3.189809e-04
  2.4480000e+00  2.448000e+00  1.800000e+00 -2.021731e-04
  2.5480000e+00  2.548000e+00  1.800000e+00 -6.288668e-04
  2.6480000e+00  2.648000e+00  1.800000e+00 -5.771588e-04
  2.7480000e+00  2.748000e+00  1.800000e+00 -6.088343e-04
  2.8480000e+00  2.848000e+00  1.800000e+00 -6.613922e-04
  2.9480000e+00  2.948000e+00  1.800000e+00 -7.328784e-04
  3.0480000e+00  3.048000e+00  1.800000e+00 -8.643198e-04
  3.1480000e+00  3.148000e+00  1.800000e+00    NaN       
  3.2480000e+00  3.248000e+00  1.800000e+00    NaN       
  3.3480000e+00  3.348000e+00  1.800000e+00    NaN       
  3.4480000e+00  3.448000e+00  1.800000e+00    NaN       
  3.5480000e+00  3.548000e+00  1.800000e+00    NaN       
  3.6480000e+00  3.648000e+00  1.800000e+00    NaN       
y
 ******  
 

  ******  dc transfer curves tnom=  25.000 temp=  25.000 *****

   *** source        0:vds =  1.900000e+00    ***

x

         volt    voltage       voltage       current     
                      2             1            vds     
  4.8000000e-02  4.800000e-02  1.900000e+00 -2.822735e-11
  1.4800000e-01  1.480000e-01  1.900000e+00 -2.172747e-10
  2.4800000e-01  2.480000e-01  1.900000e+00 -1.829416e-09
  3.4800000e-01  3.480000e-01  1.900000e+00 -1.481533e-08
  4.4800000e-01  4.480000e-01  1.900000e+00 -1.097360e-07
  5.4800000e-01  5.480000e-01  1.900000e+00 -7.209541e-07
  6.4800000e-01  6.480000e-01  1.900000e+00 -3.425477e-06
  7.4800000e-01  7.480000e-01  1.900000e+00 -9.850600e-06
  8.4800000e-01  8.480000e-01  1.900000e+00 -1.947011e-05
  9.4800000e-01  9.480000e-01  1.900000e+00 -3.120876e-05
  1.0480000e+00  1.048000e+00  1.900000e+00 -4.460334e-05
  1.1480000e+00  1.148000e+00  1.900000e+00 -5.954384e-05
  1.2480000e+00  1.248000e+00  1.900000e+00 -7.600926e-05
  1.3480000e+00  1.348000e+00  1.900000e+00 -9.398600e-05
  1.4480000e+00  1.448000e+00  1.900000e+00 -1.134551e-04
  1.5480000e+00  1.548000e+00  1.900000e+00 -1.343927e-04
  1.6480000e+00  1.648000e+00  1.900000e+00 -1.567678e-04
  1.7480000e+00  1.748000e+00  1.900000e+00 -1.805333e-04
  1.8480000e+00  1.848000e+00  1.900000e+00 -2.056038e-04
  1.9480000e+00  1.948000e+00  1.900000e+00 -2.318062e-04
  2.0480000e+00  2.048000e+00  1.900000e+00 -2.587590e-04
  2.1480000e+00  2.148000e+00  1.900000e+00 -2.855312e-04
  2.2480000e+00  2.248000e+00  1.900000e+00 -3.094306e-04
  2.3480000e+00  2.348000e+00  1.900000e+00 -3.195342e-04
  2.4480000e+00  2.448000e+00  1.900000e+00 -1.916429e-04
  2.5480000e+00  2.548000e+00  1.900000e+00 -6.252995e-04
  2.6480000e+00  2.648000e+00  1.900000e+00 -5.783047e-04
  2.7480000e+00  2.748000e+00  1.900000e+00 -6.105385e-04
  2.8480000e+00  2.848000e+00  1.900000e+00 -6.634059e-04
  2.9480000e+00  2.948000e+00  1.900000e+00 -7.353710e-04
  3.0480000e+00  3.048000e+00  1.900000e+00 -8.751735e-04
  3.1480000e+00  3.148000e+00  1.900000e+00    NaN       
  3.2480000e+00  3.248000e+00  1.900000e+00    NaN       
  3.3480000e+00  3.348000e+00  1.900000e+00    NaN       
  3.4480000e+00  3.448000e+00  1.900000e+00    NaN       
  3.5480000e+00  3.548000e+00  1.900000e+00    NaN       
  3.6480000e+00  3.648000e+00  1.900000e+00    NaN       
y
 ******  
 

  ******  dc transfer curves tnom=  25.000 temp=  25.000 *****

   *** source        0:vds =  2.000000e+00    ***

x

         volt    voltage       voltage       current     
                      2             1            vds     
  4.8000000e-02  4.800000e-02  2.000000e+00 -2.960299e-11
  1.4800000e-01  1.480000e-01  2.000000e+00 -2.277194e-10
  2.4800000e-01  2.480000e-01  2.000000e+00 -1.916546e-09
  3.4800000e-01  3.480000e-01  2.000000e+00 -1.550810e-08
  4.4800000e-01  4.480000e-01  2.000000e+00 -1.147079e-07
  5.4800000e-01  5.480000e-01  2.000000e+00 -7.511195e-07
  6.4800000e-01  6.480000e-01  2.000000e+00 -3.540428e-06
  7.4800000e-01  7.480000e-01  2.000000e+00 -1.009784e-05
  8.4800000e-01  8.480000e-01  2.000000e+00 -1.984922e-05
  9.4800000e-01  9.480000e-01  2.000000e+00 -3.170699e-05
  1.0480000e+00  1.048000e+00  2.000000e+00 -4.521099e-05
  1.1480000e+00  1.148000e+00  2.000000e+00 -6.025382e-05
  1.2480000e+00  1.248000e+00  2.000000e+00 -7.681556e-05
  1.3480000e+00  1.348000e+00  2.000000e+00 -9.488287e-05
  1.4480000e+00  1.448000e+00  2.000000e+00 -1.144368e-04
  1.5480000e+00  1.548000e+00  2.000000e+00 -1.354532e-04
  1.6480000e+00  1.648000e+00  2.000000e+00 -1.579007e-04
  1.7480000e+00  1.748000e+00  2.000000e+00 -1.817312e-04
  1.8480000e+00  1.848000e+00  2.000000e+00 -2.068576e-04
  1.9480000e+00  1.948000e+00  2.000000e+00 -2.331035e-04
  2.0480000e+00  2.048000e+00  2.000000e+00 -2.600796e-04
  2.1480000e+00  2.148000e+00  2.000000e+00 -2.868343e-04
  2.2480000e+00  2.248000e+00  2.000000e+00 -3.106028e-04
  2.3480000e+00  2.348000e+00  2.000000e+00 -3.200486e-04
  2.4480000e+00  2.448000e+00  2.000000e+00 -1.797402e-04
  2.5480000e+00  2.548000e+00  2.000000e+00 -6.220946e-04
  2.6480000e+00  2.648000e+00  2.000000e+00 -5.794725e-04
  2.7480000e+00  2.748000e+00  2.000000e+00 -6.122540e-04
  2.8480000e+00  2.848000e+00  2.000000e+00 -6.654338e-04
  2.9480000e+00  2.948000e+00  2.000000e+00 -7.378916e-04
  3.0480000e+00  3.048000e+00  2.000000e+00    NaN       
  3.1480000e+00  3.148000e+00  2.000000e+00    NaN       
  3.2480000e+00  3.248000e+00  2.000000e+00    NaN       
  3.3480000e+00  3.348000e+00  2.000000e+00    NaN       
  3.4480000e+00  3.448000e+00  2.000000e+00    NaN       
  3.5480000e+00  3.548000e+00  2.000000e+00    NaN       
  3.6480000e+00  3.648000e+00  2.000000e+00    NaN       
y
 ******  
 

  ******  dc transfer curves tnom=  25.000 temp=  25.000 *****

   *** source        0:vds =  2.100000e+00    ***

x

         volt    voltage       voltage       current     
                      2             1            vds     
  4.8000000e-02  4.800000e-02  2.100000e+00 -3.101991e-11
  1.4800000e-01  1.480000e-01  2.100000e+00 -2.385218e-10
  2.4800000e-01  2.480000e-01  2.100000e+00 -2.006664e-09
  3.4800000e-01  3.480000e-01  2.100000e+00 -1.622385e-08
  4.4800000e-01  4.480000e-01  2.100000e+00 -1.198359e-07
  5.4800000e-01  5.480000e-01  2.100000e+00 -7.821002e-07
  6.4800000e-01  6.480000e-01  2.100000e+00 -3.657408e-06
  7.4800000e-01  7.480000e-01  2.100000e+00 -1.034746e-05
  8.4800000e-01  8.480000e-01  2.100000e+00 -2.023021e-05
  9.4800000e-01  9.480000e-01  2.100000e+00 -3.220625e-05
  1.0480000e+00  1.048000e+00  2.100000e+00 -4.581863e-05
  1.1480000e+00  1.148000e+00  2.100000e+00 -6.096263e-05
  1.2480000e+00  1.248000e+00  2.100000e+00 -7.761939e-05
  1.3480000e+00  1.348000e+00  2.100000e+00 -9.577595e-05
  1.4480000e+00  1.448000e+00  2.100000e+00 -1.154134e-04
  1.5480000e+00  1.548000e+00  2.100000e+00 -1.365074e-04
  1.6480000e+00  1.648000e+00  2.100000e+00 -1.590261e-04
  1.7480000e+00  1.748000e+00  2.100000e+00 -1.829207e-04
  1.8480000e+00  1.848000e+00  2.100000e+00 -2.081024e-04
  1.9480000e+00  1.948000e+00  2.100000e+00 -2.343914e-04
  2.0480000e+00  2.048000e+00  2.100000e+00 -2.613907e-04
  2.1480000e+00  2.148000e+00  2.100000e+00 -2.881272e-04
  2.2480000e+00  2.248000e+00  2.100000e+00 -3.117614e-04
  2.3480000e+00  2.348000e+00  2.100000e+00 -3.205237e-04
  2.4480000e+00  2.448000e+00  2.100000e+00 -1.662225e-04
  2.5480000e+00  2.548000e+00  2.100000e+00 -6.192164e-04
  2.6480000e+00  2.648000e+00  2.100000e+00 -5.806612e-04
  2.7480000e+00  2.748000e+00  2.100000e+00 -6.139803e-04
  2.8480000e+00  2.848000e+00  2.100000e+00 -6.674753e-04
  2.9480000e+00  2.948000e+00  2.100000e+00 -7.404397e-04
  3.0480000e+00  3.048000e+00  2.100000e+00    NaN       
  3.1480000e+00  3.148000e+00  2.100000e+00    NaN       
  3.2480000e+00  3.248000e+00  2.100000e+00    NaN       
  3.3480000e+00  3.348000e+00  2.100000e+00    NaN       
  3.4480000e+00  3.448000e+00  2.100000e+00    NaN       
  3.5480000e+00  3.548000e+00  2.100000e+00    NaN       
  3.6480000e+00  3.648000e+00  2.100000e+00    NaN       
y
 ******  
 

  ******  dc transfer curves tnom=  25.000 temp=  25.000 *****

   *** source        0:vds =  2.200000e+00    ***

x

         volt    voltage       voltage       current     
                      2             1            vds     
  4.8000000e-02  4.800000e-02  2.200000e+00 -3.247940e-11
  1.4800000e-01  1.480000e-01  2.200000e+00 -2.496929e-10
  2.4800000e-01  2.480000e-01  2.200000e+00 -2.099859e-09
  3.4800000e-01  3.480000e-01  2.200000e+00 -1.696324e-08
  4.4800000e-01  4.480000e-01  2.200000e+00 -1.251242e-07
  5.4800000e-01  5.480000e-01  2.200000e+00 -8.139127e-07
  6.4800000e-01  6.480000e-01  2.200000e+00 -3.776435e-06
  7.4800000e-01  7.480000e-01  2.200000e+00 -1.059948e-05
  8.4800000e-01  8.480000e-01  2.200000e+00 -2.061315e-05
  9.4800000e-01  9.480000e-01  2.200000e+00 -3.270671e-05
  1.0480000e+00  1.048000e+00  2.200000e+00 -4.642657e-05
  1.1480000e+00  1.148000e+00  2.200000e+00 -6.167071e-05
  1.2480000e+00  1.248000e+00  2.200000e+00 -7.842139e-05
  1.3480000e+00  1.348000e+00  2.200000e+00 -9.666605e-05
  1.4480000e+00  1.448000e+00  2.200000e+00 -1.163859e-04
  1.5480000e+00  1.548000e+00  2.200000e+00 -1.375564e-04
  1.6480000e+00  1.648000e+00  2.200000e+00 -1.601455e-04
  1.7480000e+00  1.748000e+00  2.200000e+00 -1.841034e-04
  1.8480000e+00  1.848000e+00  2.200000e+00 -2.093398e-04
  1.9480000e+00  1.948000e+00  2.200000e+00 -2.356715e-04
  2.0480000e+00  2.048000e+00  2.200000e+00 -2.626935e-04
  2.1480000e+00  2.148000e+00  2.200000e+00 -2.894112e-04
  2.2480000e+00  2.248000e+00  2.200000e+00 -3.129075e-04
  2.3480000e+00  2.348000e+00  2.200000e+00 -3.209589e-04
  2.4480000e+00  2.448000e+00  2.200000e+00 -1.507858e-04
  2.5480000e+00  2.548000e+00  2.200000e+00 -6.166340e-04
  2.6480000e+00  2.648000e+00  2.200000e+00 -5.818698e-04
  2.7480000e+00  2.748000e+00  2.200000e+00 -6.157167e-04
  2.8480000e+00  2.848000e+00  2.200000e+00 -6.695296e-04
  2.9480000e+00  2.948000e+00  2.200000e+00 -7.430148e-04
  3.0480000e+00  3.048000e+00  2.200000e+00    NaN       
  3.1480000e+00  3.148000e+00  2.200000e+00    NaN       
  3.2480000e+00  3.248000e+00  2.200000e+00    NaN       
  3.3480000e+00  3.348000e+00  2.200000e+00    NaN       
  3.4480000e+00  3.448000e+00  2.200000e+00    NaN       
  3.5480000e+00  3.548000e+00  2.200000e+00    NaN       
  3.6480000e+00  3.648000e+00  2.200000e+00    NaN       
y
 ******  
 

  ******  dc transfer curves tnom=  25.000 temp=  25.000 *****

   *** source        0:vds =  2.300000e+00    ***

x

         volt    voltage       voltage       current     
                      2             1            vds     
  4.8000000e-02  4.800000e-02  2.300000e+00 -3.398278e-11
  1.4800000e-01  1.480000e-01  2.300000e+00 -2.612440e-10
  2.4800000e-01  2.480000e-01  2.300000e+00 -2.196224e-09
  3.4800000e-01  3.480000e-01  2.300000e+00 -1.772695e-08
  4.4800000e-01  4.480000e-01  2.300000e+00 -1.305771e-07
  5.4800000e-01  5.480000e-01  2.300000e+00 -8.465735e-07
  6.4800000e-01  6.480000e-01  2.300000e+00 -3.897529e-06
  7.4800000e-01  7.480000e-01  2.300000e+00 -1.085394e-05
  8.4800000e-01  8.480000e-01  2.300000e+00 -2.099810e-05
  9.4800000e-01  9.480000e-01  2.300000e+00 -3.320850e-05
  1.0480000e+00  1.048000e+00  2.300000e+00 -4.703504e-05
  1.1480000e+00  1.148000e+00  2.300000e+00 -6.237844e-05
  1.2480000e+00  1.248000e+00  2.300000e+00 -7.922208e-05
  1.3480000e+00  1.348000e+00  2.300000e+00 -9.755385e-05
  1.4480000e+00  1.448000e+00  2.300000e+00 -1.173551e-04
  1.5480000e+00  1.548000e+00  2.300000e+00 -1.386012e-04
  1.6480000e+00  1.648000e+00  2.300000e+00 -1.612598e-04
  1.7480000e+00  1.748000e+00  2.300000e+00 -1.852803e-04
  1.8480000e+00  1.848000e+00  2.300000e+00 -2.105709e-04
  1.9480000e+00  1.948000e+00  2.300000e+00 -2.369449e-04
  2.0480000e+00  2.048000e+00  2.300000e+00 -2.639894e-04
  2.1480000e+00  2.148000e+00  2.300000e+00 -2.906872e-04
  2.2480000e+00  2.248000e+00  2.300000e+00 -3.140418e-04
  2.3480000e+00  2.348000e+00  2.300000e+00 -3.213534e-04
  2.4480000e+00  2.448000e+00  2.300000e+00 -1.330442e-04
  2.5480000e+00  2.548000e+00  2.300000e+00 -6.143199e-04
  2.6480000e+00  2.648000e+00  2.300000e+00 -5.830978e-04
  2.7480000e+00  2.748000e+00  2.300000e+00 -6.174628e-04
  2.8480000e+00  2.848000e+00  2.300000e+00 -6.715962e-04
  2.9480000e+00  2.948000e+00  2.300000e+00 -7.456168e-04
  3.0480000e+00  3.048000e+00  2.300000e+00    NaN       
  3.1480000e+00  3.148000e+00  2.300000e+00    NaN       
  3.2480000e+00  3.248000e+00  2.300000e+00    NaN       
  3.3480000e+00  3.348000e+00  2.300000e+00    NaN       
  3.4480000e+00  3.448000e+00  2.300000e+00    NaN       
  3.5480000e+00  3.548000e+00  2.300000e+00    NaN       
  3.6480000e+00  3.648000e+00  2.300000e+00    NaN       
y
 ******  
 

  ******  dc transfer curves tnom=  25.000 temp=  25.000 *****

   *** source        0:vds =  2.400000e+00    ***

x

         volt    voltage       voltage       current     
                      2             1            vds     
  4.8000000e-02  4.800000e-02  2.400000e+00 -3.553140e-11
  1.4800000e-01  1.480000e-01  2.400000e+00 -2.731868e-10
  2.4800000e-01  2.480000e-01  2.400000e+00 -2.295855e-09
  3.4800000e-01  3.480000e-01  2.400000e+00 -1.851566e-08
  4.4800000e-01  4.480000e-01  2.400000e+00 -1.361989e-07
  5.4800000e-01  5.480000e-01  2.400000e+00 -8.800994e-07
  6.4800000e-01  6.480000e-01  2.400000e+00 -4.020708e-06
  7.4800000e-01  7.480000e-01  2.400000e+00 -1.111085e-05
  8.4800000e-01  8.480000e-01  2.400000e+00 -2.138511e-05
  9.4800000e-01  9.480000e-01  2.400000e+00 -3.371174e-05
  1.0480000e+00  1.048000e+00  2.400000e+00 -4.764426e-05
  1.1480000e+00  1.148000e+00  2.400000e+00 -6.308611e-05
  1.2480000e+00  1.248000e+00  2.400000e+00 -8.002187e-05
  1.3480000e+00  1.348000e+00  2.400000e+00 -9.843988e-05
  1.4480000e+00  1.448000e+00  2.400000e+00 -1.183216e-04
  1.5480000e+00  1.548000e+00  2.400000e+00 -1.396426e-04
  1.6480000e+00  1.648000e+00  2.400000e+00 -1.623699e-04
  1.7480000e+00  1.748000e+00  2.400000e+00 -1.864525e-04
  1.8480000e+00  1.848000e+00  2.400000e+00 -2.117968e-04
  1.9480000e+00  1.948000e+00  2.400000e+00 -2.382128e-04
  2.0480000e+00  2.048000e+00  2.400000e+00 -2.652793e-04
  2.1480000e+00  2.148000e+00  2.400000e+00 -2.919563e-04
  2.2480000e+00  2.248000e+00  2.400000e+00 -3.151649e-04
  2.3480000e+00  2.348000e+00  2.400000e+00 -3.217059e-04
  2.4480000e+00  2.448000e+00  2.400000e+00 -1.125002e-04
  2.5480000e+00  2.548000e+00  2.400000e+00 -6.122502e-04
  2.6480000e+00  2.648000e+00  2.400000e+00 -5.843444e-04
  2.7480000e+00  2.748000e+00  2.400000e+00 -6.192183e-04
  2.8480000e+00  2.848000e+00  2.400000e+00 -6.736744e-04
  2.9480000e+00  2.948000e+00  2.400000e+00 -7.482457e-04
  3.0480000e+00  3.048000e+00  2.400000e+00    NaN       
  3.1480000e+00  3.148000e+00  2.400000e+00    NaN       
  3.2480000e+00  3.248000e+00  2.400000e+00    NaN       
  3.3480000e+00  3.348000e+00  2.400000e+00    NaN       
  3.4480000e+00  3.448000e+00  2.400000e+00    NaN       
  3.5480000e+00  3.548000e+00  2.400000e+00    NaN       
  3.6480000e+00  3.648000e+00  2.400000e+00    NaN       
y
 ******  
 

  ******  dc transfer curves tnom=  25.000 temp=  25.000 *****

   *** source        0:vds =  2.500000e+00    ***

x

         volt    voltage       voltage       current     
                      2             1            vds     
  4.8000000e-02  4.800000e-02  2.500000e+00 -3.712666e-11
  1.4800000e-01  1.480000e-01  2.500000e+00 -2.855332e-10
  2.4800000e-01  2.480000e-01  2.500000e+00 -2.398847e-09
  3.4800000e-01  3.480000e-01  2.500000e+00 -1.933010e-08
  4.4800000e-01  4.480000e-01  2.500000e+00 -1.419941e-07
  5.4800000e-01  5.480000e-01  2.500000e+00 -9.145072e-07
  6.4800000e-01  6.480000e-01  2.500000e+00 -4.145988e-06
  7.4800000e-01  7.480000e-01  2.500000e+00 -1.137022e-05
  8.4800000e-01  8.480000e-01  2.500000e+00 -2.177423e-05
  9.4800000e-01  9.480000e-01  2.500000e+00 -3.421652e-05
  1.0480000e+00  1.048000e+00  2.500000e+00 -4.825437e-05
  1.1480000e+00  1.148000e+00  2.500000e+00 -6.379399e-05
  1.2480000e+00  1.248000e+00  2.500000e+00 -8.082112e-05
  1.3480000e+00  1.348000e+00  2.500000e+00 -9.932461e-05
  1.4480000e+00  1.448000e+00  2.500000e+00 -1.192861e-04
  1.5480000e+00  1.548000e+00  2.500000e+00 -1.406812e-04
  1.6480000e+00  1.648000e+00  2.500000e+00 -1.634767e-04
  1.7480000e+00  1.748000e+00  2.500000e+00 -1.876208e-04
  1.8480000e+00  1.848000e+00  2.500000e+00 -2.130184e-04
  1.9480000e+00  1.948000e+00  2.500000e+00 -2.394760e-04
  2.0480000e+00  2.048000e+00  2.500000e+00 -2.665639e-04
  2.1480000e+00  2.148000e+00  2.500000e+00 -2.932190e-04
  2.2480000e+00  2.248000e+00  2.500000e+00 -3.162772e-04
  2.3480000e+00  2.348000e+00  2.500000e+00 -3.220151e-04
  2.4480000e+00  2.448000e+00  2.500000e+00 -8.850136e-05
  2.5480000e+00  2.548000e+00  2.500000e+00 -6.104037e-04
  2.6480000e+00  2.648000e+00  2.500000e+00 -5.856088e-04
  2.7480000e+00  2.748000e+00  2.500000e+00 -6.209828e-04
  2.8480000e+00  2.848000e+00  2.500000e+00 -6.757641e-04
  2.9480000e+00  2.948000e+00  2.500000e+00 -7.509016e-04
  3.0480000e+00  3.048000e+00  2.500000e+00    NaN       
  3.1480000e+00  3.148000e+00  2.500000e+00    NaN       
  3.2480000e+00  3.248000e+00  2.500000e+00    NaN       
  3.3480000e+00  3.348000e+00  2.500000e+00    NaN       
  3.4480000e+00  3.448000e+00  2.500000e+00    NaN       
  3.5480000e+00  3.548000e+00  2.500000e+00    NaN       
  3.6480000e+00  3.648000e+00  2.500000e+00    NaN       
y
 ******  
 

  ******  dc transfer curves tnom=  25.000 temp=  25.000 *****

   *** source        0:vds =  2.600000e+00    ***

x

         volt    voltage       voltage       current     
                      2             1            vds     
  4.8000000e-02  4.800000e-02  2.600000e+00 -3.877000e-11
  1.4800000e-01  1.480000e-01  2.600000e+00 -2.982956e-10
  2.4800000e-01  2.480000e-01  2.600000e+00 -2.505302e-09
  3.4800000e-01  3.480000e-01  2.600000e+00 -2.017099e-08
  4.4800000e-01  4.480000e-01  2.600000e+00 -1.479673e-07
  5.4800000e-01  5.480000e-01  2.600000e+00 -9.498140e-07
  6.4800000e-01  6.480000e-01  2.600000e+00 -4.273387e-06
  7.4800000e-01  7.480000e-01  2.600000e+00 -1.163206e-05
  8.4800000e-01  8.480000e-01  2.600000e+00 -2.216548e-05
  9.4800000e-01  9.480000e-01  2.600000e+00 -3.472291e-05
  1.0480000e+00  1.048000e+00  2.600000e+00 -4.886552e-05
  1.1480000e+00  1.148000e+00  2.600000e+00 -6.450228e-05
  1.2480000e+00  1.248000e+00  2.600000e+00 -8.162012e-05
  1.3480000e+00  1.348000e+00  2.600000e+00 -1.002084e-04
  1.4480000e+00  1.448000e+00  2.600000e+00 -1.202490e-04
  1.5480000e+00  1.548000e+00  2.600000e+00 -1.417175e-04
  1.6480000e+00  1.648000e+00  2.600000e+00 -1.645806e-04
  1.7480000e+00  1.748000e+00  2.600000e+00 -1.887857e-04
  1.8480000e+00  1.848000e+00  2.600000e+00 -2.142362e-04
  1.9480000e+00  1.948000e+00  2.600000e+00 -2.407350e-04
  2.0480000e+00  2.048000e+00  2.600000e+00 -2.678440e-04
  2.1480000e+00  2.148000e+00  2.600000e+00 -2.944759e-04
  2.2480000e+00  2.248000e+00  2.600000e+00 -3.173792e-04
  2.3480000e+00  2.348000e+00  2.600000e+00 -3.222794e-04
  2.4480000e+00  2.448000e+00  2.600000e+00 -6.017537e-05
  2.5480000e+00  2.548000e+00  2.600000e+00 -6.087617e-04
  2.6480000e+00  2.648000e+00  2.600000e+00 -5.868906e-04
  2.7480000e+00  2.748000e+00  2.600000e+00 -6.227560e-04
  2.8480000e+00  2.848000e+00  2.600000e+00 -6.778648e-04
  2.9480000e+00  2.948000e+00  2.600000e+00 -7.535849e-04
  3.0480000e+00  3.048000e+00  2.600000e+00    NaN       
  3.1480000e+00  3.148000e+00  2.600000e+00    NaN       
  3.2480000e+00  3.248000e+00  2.600000e+00    NaN       
  3.3480000e+00  3.348000e+00  2.600000e+00    NaN       
  3.4480000e+00  3.448000e+00  2.600000e+00    NaN       
  3.5480000e+00  3.548000e+00  2.600000e+00    NaN       
  3.6480000e+00  3.648000e+00  2.600000e+00    NaN       
y
 ******  
 

  ******  dc transfer curves tnom=  25.000 temp=  25.000 *****

   *** source        0:vds =  2.700000e+00    ***

x

         volt    voltage       voltage       current     
                      2             1            vds     
  4.8000000e-02  4.800000e-02  2.700000e+00 -4.046289e-11
  1.4800000e-01  1.480000e-01  2.700000e+00 -3.114866e-10
  2.4800000e-01  2.480000e-01  2.700000e+00 -2.615322e-09
  3.4800000e-01  3.480000e-01  2.700000e+00 -2.103906e-08
  4.4800000e-01  4.480000e-01  2.700000e+00 -1.541230e-07
  5.4800000e-01  5.480000e-01  2.700000e+00 -9.860369e-07
  6.4800000e-01  6.480000e-01  2.700000e+00 -4.402923e-06
  7.4800000e-01  7.480000e-01  2.700000e+00 -1.189639e-05
  8.4800000e-01  8.480000e-01  2.700000e+00 -2.255889e-05
  9.4800000e-01  9.480000e-01  2.700000e+00 -3.523099e-05
  1.0480000e+00  1.048000e+00  2.700000e+00 -4.947783e-05
  1.1480000e+00  1.148000e+00  2.700000e+00 -6.521117e-05
  1.2480000e+00  1.248000e+00  2.700000e+00 -8.241911e-05
  1.3480000e+00  1.348000e+00  2.700000e+00 -1.010916e-04
  1.4480000e+00  1.448000e+00  2.700000e+00 -1.212107e-04
  1.5480000e+00  1.548000e+00  2.700000e+00 -1.427521e-04
  1.6480000e+00  1.648000e+00  2.700000e+00 -1.656823e-04
  1.7480000e+00  1.748000e+00  2.700000e+00 -1.899480e-04
  1.8480000e+00  1.848000e+00  2.700000e+00 -2.154509e-04
  1.9480000e+00  1.948000e+00  2.700000e+00 -2.419906e-04
  2.0480000e+00  2.048000e+00  2.700000e+00 -2.691200e-04
  2.1480000e+00  2.148000e+00  2.700000e+00 -2.957276e-04
  2.2480000e+00  2.248000e+00  2.700000e+00 -3.184710e-04
  2.3480000e+00  2.348000e+00  2.700000e+00 -3.224969e-04
  2.4480000e+00  2.448000e+00  2.700000e+00 -2.632887e-05
  2.5480000e+00  2.548000e+00  2.700000e+00 -6.073074e-04
  2.6480000e+00  2.648000e+00  2.700000e+00 -5.881890e-04
  2.7480000e+00  2.748000e+00  2.700000e+00 -6.245377e-04
  2.8480000e+00  2.848000e+00  2.700000e+00 -6.799762e-04
  2.9480000e+00  2.948000e+00  2.700000e+00 -7.562961e-04
  3.0480000e+00  3.048000e+00  2.700000e+00    NaN       
  3.1480000e+00  3.148000e+00  2.700000e+00    NaN       
  3.2480000e+00  3.248000e+00  2.700000e+00    NaN       
  3.3480000e+00  3.348000e+00  2.700000e+00    NaN       
  3.4480000e+00  3.448000e+00  2.700000e+00    NaN       
  3.5480000e+00  3.548000e+00  2.700000e+00    NaN       
  3.6480000e+00  3.648000e+00  2.700000e+00    NaN       
y
 ******  
 

  ******  dc transfer curves tnom=  25.000 temp=  25.000 *****

   *** source        0:vds =  2.800000e+00    ***

x

         volt    voltage       voltage       current     
                      2             1            vds     
  4.8000000e-02  4.800000e-02  2.800000e+00 -4.220686e-11
  1.4800000e-01  1.480000e-01  2.800000e+00 -3.251192e-10
  2.4800000e-01  2.480000e-01  2.800000e+00 -2.729012e-09
  3.4800000e-01  3.480000e-01  2.800000e+00 -2.193510e-08
  4.4800000e-01  4.480000e-01  2.800000e+00 -1.604661e-07
  5.4800000e-01  5.480000e-01  2.800000e+00 -1.023193e-06
  6.4800000e-01  6.480000e-01  2.800000e+00 -4.534610e-06
  7.4800000e-01  7.480000e-01  2.800000e+00 -1.216322e-05
  8.4800000e-01  8.480000e-01  2.800000e+00 -2.295450e-05
  9.4800000e-01  9.480000e-01  2.800000e+00 -3.574082e-05
  1.0480000e+00  1.048000e+00  2.800000e+00 -5.009140e-05
  1.1480000e+00  1.148000e+00  2.800000e+00 -6.592079e-05
  1.2480000e+00  1.248000e+00  2.800000e+00 -8.321831e-05
  1.3480000e+00  1.348000e+00  2.800000e+00 -1.019744e-04
  1.4480000e+00  1.448000e+00  2.800000e+00 -1.221715e-04
  1.5480000e+00  1.548000e+00  2.800000e+00 -1.437853e-04
  1.6480000e+00  1.648000e+00  2.800000e+00 -1.667821e-04
  1.7480000e+00  1.748000e+00  2.800000e+00 -1.911079e-04
  1.8480000e+00  1.848000e+00  2.800000e+00 -2.166630e-04
  1.9480000e+00  1.948000e+00  2.800000e+00 -2.432431e-04
  2.0480000e+00  2.048000e+00  2.800000e+00 -2.703926e-04
  2.1480000e+00  2.148000e+00  2.800000e+00 -2.969745e-04
  2.2480000e+00  2.248000e+00  2.800000e+00 -3.195529e-04
  2.3480000e+00  2.348000e+00  2.800000e+00 -3.226658e-04
  2.4480000e+00  2.448000e+00  2.800000e+00  1.471518e-05
  2.5480000e+00  2.548000e+00  2.800000e+00 -6.060261e-04
  2.6480000e+00  2.648000e+00  2.800000e+00 -5.895037e-04
  2.7480000e+00  2.748000e+00  2.800000e+00 -6.263276e-04
  2.8480000e+00  2.848000e+00  2.800000e+00 -6.820983e-04
  2.9480000e+00  2.948000e+00  2.800000e+00 -7.590356e-04
  3.0480000e+00  3.048000e+00  2.800000e+00    NaN       
  3.1480000e+00  3.148000e+00  2.800000e+00    NaN       
  3.2480000e+00  3.248000e+00  2.800000e+00    NaN       
  3.3480000e+00  3.348000e+00  2.800000e+00    NaN       
  3.4480000e+00  3.448000e+00  2.800000e+00    NaN       
  3.5480000e+00  3.548000e+00  2.800000e+00    NaN       
  3.6480000e+00  3.648000e+00  2.800000e+00    NaN       
y
 ******  
 

  ******  dc transfer curves tnom=  25.000 temp=  25.000 *****

   *** source        0:vds =  2.900000e+00    ***

x

         volt    voltage       voltage       current     
                      2             1            vds     
  4.8000000e-02  4.800000e-02  2.900000e+00 -4.400346e-11
  1.4800000e-01  1.480000e-01  2.900000e+00 -3.392068e-10
  2.4800000e-01  2.480000e-01  2.900000e+00 -2.846481e-09
  3.4800000e-01  3.480000e-01  2.900000e+00 -2.285988e-08
  4.4800000e-01  4.480000e-01  2.900000e+00 -1.670015e-07
  5.4800000e-01  5.480000e-01  2.900000e+00 -1.061301e-06
  6.4800000e-01  6.480000e-01  2.900000e+00 -4.668465e-06
  7.4800000e-01  7.480000e-01  2.900000e+00 -1.243255e-05
  8.4800000e-01  8.480000e-01  2.900000e+00 -2.335232e-05
  9.4800000e-01  9.480000e-01  2.900000e+00 -3.625243e-05
  1.0480000e+00  1.048000e+00  2.900000e+00 -5.070631e-05
  1.1480000e+00  1.148000e+00  2.900000e+00 -6.663128e-05
  1.2480000e+00  1.248000e+00  2.900000e+00 -8.401788e-05
  1.3480000e+00  1.348000e+00  2.900000e+00 -1.028571e-04
  1.4480000e+00  1.448000e+00  2.900000e+00 -1.231317e-04
  1.5480000e+00  1.548000e+00  2.900000e+00 -1.448175e-04
  1.6480000e+00  1.648000e+00  2.900000e+00 -1.678804e-04
  1.7480000e+00  1.748000e+00  2.900000e+00 -1.922660e-04
  1.8480000e+00  1.848000e+00  2.900000e+00 -2.178729e-04
  1.9480000e+00  1.948000e+00  2.900000e+00 -2.444931e-04
  2.0480000e+00  2.048000e+00  2.900000e+00 -2.716619e-04
  2.1480000e+00  2.148000e+00  2.900000e+00 -2.982167e-04
  2.2480000e+00  2.248000e+00  2.900000e+00 -3.206249e-04
  2.3480000e+00  2.348000e+00  2.900000e+00 -3.227838e-04
  2.4480000e+00  2.448000e+00  2.900000e+00  6.538995e-05
  2.5480000e+00  2.548000e+00  2.900000e+00 -6.049042e-04
  2.6480000e+00  2.648000e+00  2.900000e+00 -5.908340e-04
  2.7480000e+00  2.748000e+00  2.900000e+00 -6.281256e-04
  2.8480000e+00  2.848000e+00  2.900000e+00 -6.842307e-04
  2.9480000e+00  2.948000e+00  2.900000e+00 -7.618044e-04
  3.0480000e+00  3.048000e+00  2.900000e+00    NaN       
  3.1480000e+00  3.148000e+00  2.900000e+00    NaN       
  3.2480000e+00  3.248000e+00  2.900000e+00    NaN       
  3.3480000e+00  3.348000e+00  2.900000e+00    NaN       
  3.4480000e+00  3.448000e+00  2.900000e+00    NaN       
  3.5480000e+00  3.548000e+00  2.900000e+00    NaN       
  3.6480000e+00  3.648000e+00  2.900000e+00    NaN       
y
 ******  
 

  ******  dc transfer curves tnom=  25.000 temp=  25.000 *****

   *** source        0:vds =  3.000000e+00    ***

x

         volt    voltage       voltage       current     
                      2             1            vds     
  4.8000000e-02  4.800000e-02  3.000000e+00 -4.585430e-11
  1.4800000e-01  1.480000e-01  3.000000e+00 -3.537632e-10
  2.4800000e-01  2.480000e-01  3.000000e+00 -2.967841e-09
  3.4800000e-01  3.480000e-01  3.000000e+00 -2.381421e-08
  4.4800000e-01  4.480000e-01  3.000000e+00 -1.737340e-07
  5.4800000e-01  5.480000e-01  3.000000e+00 -1.100377e-06
  6.4800000e-01  6.480000e-01  3.000000e+00 -4.804503e-06
  7.4800000e-01  7.480000e-01  3.000000e+00 -1.270439e-05
  8.4800000e-01  8.480000e-01  3.000000e+00 -2.375236e-05
  9.4800000e-01  9.480000e-01  3.000000e+00 -3.676588e-05
  1.0480000e+00  1.048000e+00  3.000000e+00 -5.132264e-05
  1.1480000e+00  1.148000e+00  3.000000e+00 -6.734276e-05
  1.2480000e+00  1.248000e+00  3.000000e+00 -8.481799e-05
  1.3480000e+00  1.348000e+00  3.000000e+00 -1.037399e-04
  1.4480000e+00  1.448000e+00  3.000000e+00 -1.240916e-04
  1.5480000e+00  1.548000e+00  3.000000e+00 -1.458488e-04
  1.6480000e+00  1.648000e+00  3.000000e+00 -1.689775e-04
  1.7480000e+00  1.748000e+00  3.000000e+00 -1.934225e-04
  1.8480000e+00  1.848000e+00  3.000000e+00 -2.190809e-04
  1.9480000e+00  1.948000e+00  3.000000e+00 -2.457408e-04
  2.0480000e+00  2.048000e+00  3.000000e+00 -2.729285e-04
  2.1480000e+00  2.148000e+00  3.000000e+00 -2.994548e-04
  2.2480000e+00  2.248000e+00  3.000000e+00 -3.216870e-04
  2.3480000e+00  2.348000e+00  3.000000e+00 -3.228485e-04
  2.4480000e+00  2.448000e+00  3.000000e+00  1.293649e-04
  2.5480000e+00  2.548000e+00  3.000000e+00 -6.039299e-04
  2.6480000e+00  2.648000e+00  3.000000e+00 -5.921795e-04
  2.7480000e+00  2.748000e+00  3.000000e+00 -6.299315e-04
  2.8480000e+00  2.848000e+00  3.000000e+00 -6.863734e-04
  2.9480000e+00  2.948000e+00  3.000000e+00 -7.646032e-04
  3.0480000e+00  3.048000e+00  3.000000e+00    NaN       
  3.1480000e+00  3.148000e+00  3.000000e+00    NaN       
  3.2480000e+00  3.248000e+00  3.000000e+00    NaN       
  3.3480000e+00  3.348000e+00  3.000000e+00    NaN       
  3.4480000e+00  3.448000e+00  3.000000e+00    NaN       
  3.5480000e+00  3.548000e+00  3.000000e+00    NaN       
  3.6480000e+00  3.648000e+00  3.000000e+00    NaN       
y
 ******  
 

  ******  dc transfer curves tnom=  25.000 temp=  25.000 *****

   *** source        0:vds =  3.100000e+00    ***

x

         volt    voltage       voltage       current     
                      2             1            vds     
  4.8000000e-02  4.800000e-02  3.100000e+00 -4.776103e-11
  1.4800000e-01  1.480000e-01  3.100000e+00 -3.688024e-10
  2.4800000e-01  2.480000e-01  3.100000e+00 -3.093206e-09
  3.4800000e-01  3.480000e-01  3.100000e+00 -2.479891e-08
  4.4800000e-01  4.480000e-01  3.100000e+00 -1.806688e-07
  5.4800000e-01  5.480000e-01  3.100000e+00 -1.140439e-06
  6.4800000e-01  6.480000e-01  3.100000e+00 -4.942741e-06
  7.4800000e-01  7.480000e-01  3.100000e+00 -1.297875e-05
  8.4800000e-01  8.480000e-01  3.100000e+00 -2.415466e-05
  9.4800000e-01  9.480000e-01  3.100000e+00 -3.728119e-05
  1.0480000e+00  1.048000e+00  3.100000e+00 -5.194045e-05
  1.1480000e+00  1.148000e+00  3.100000e+00 -6.805531e-05
  1.2480000e+00  1.248000e+00  3.100000e+00 -8.561876e-05
  1.3480000e+00  1.348000e+00  3.100000e+00 -1.046230e-04
  1.4480000e+00  1.448000e+00  3.100000e+00 -1.250512e-04
  1.5480000e+00  1.548000e+00  3.100000e+00 -1.468796e-04
  1.6480000e+00  1.648000e+00  3.100000e+00 -1.700737e-04
  1.7480000e+00  1.748000e+00  3.100000e+00 -1.945778e-04
  1.8480000e+00  1.848000e+00  3.100000e+00 -2.202873e-04
  1.9480000e+00  1.948000e+00  3.100000e+00 -2.469866e-04
  2.0480000e+00  2.048000e+00  3.100000e+00 -2.741925e-04
  2.1480000e+00  2.148000e+00  3.100000e+00 -3.006888e-04
  2.2480000e+00  2.248000e+00  3.100000e+00 -3.227394e-04
  2.3480000e+00  2.348000e+00  3.100000e+00 -3.228572e-04
  2.4480000e+00  2.448000e+00  3.100000e+00  2.124451e-04
  2.5480000e+00  2.548000e+00  3.100000e+00 -6.030923e-04
  2.6480000e+00  2.648000e+00  3.100000e+00 -5.935397e-04
  2.7480000e+00  2.748000e+00  3.100000e+00 -6.317451e-04
  2.8480000e+00  2.848000e+00  3.100000e+00 -6.885262e-04
  2.9480000e+00  2.948000e+00  3.100000e+00 -7.674330e-04
  3.0480000e+00  3.048000e+00  3.100000e+00    NaN       
  3.1480000e+00  3.148000e+00  3.100000e+00    NaN       
  3.2480000e+00  3.248000e+00  3.100000e+00    NaN       
  3.3480000e+00  3.348000e+00  3.100000e+00    NaN       
  3.4480000e+00  3.448000e+00  3.100000e+00    NaN       
  3.5480000e+00  3.548000e+00  3.100000e+00    NaN       
  3.6480000e+00  3.648000e+00  3.100000e+00    NaN       
y
 

          ***** job concluded
 ****** HSPICE -- E-2010.12-SP2 64-BIT (May 23 2011) linux ******               
 ******  
 

  ******  job statistics summary tnom=  25.000 temp=  25.000 *****
  
  
 ******  Machine Information  ******
 CPU:
 model name	: Intel(R) Core(TM) i7-3770 CPU @ 3.40GHz
 cpu MHz	: 3401.000
  
 OS:
 Linux version 2.6.32-504.el6.x86_64 (mockbuild@x86-023.build.eng.bos.redhat.com
 ) (gcc version 4.4.7 20120313 (Red Hat 4.4.7-11) (GCC) ) #1 SMP Tue Sep 16 01:5
 6:35 EDT 2014


  ******  HSPICE Threads Information  ******

  Command Line Threads Count :     1
  Available CPU Count        :     8
  Actual Threads Count       :     1


  ******  Circuit Statistics  ******
  # nodes       =       3 # elements   =       3
  # resistors   =       0 # capacitors =       0 # inductors   =       0
  # mutual_inds =       0 # vccs       =       0 # vcvs        =       0
  # cccs        =       0 # ccvs       =       0 # volt_srcs   =       2
  # curr_srcs   =       0 # diodes     =       0 # bjts        =       0
  # jfets       =       0 # mosfets    =       1 # U elements  =       0
  # T elements  =       0 # W elements =       0 # B elements  =       0
  # S elements  =       0 # P elements =       0 # va device   =       0
  # vector_srcs =       0


  ******  Runtime Statistics (seconds)  ******

  analysis           time    # points   tot. iter  conv.iter
  op point           0.00           1           0
  dc sweep           0.01        1184        2522
  readin             0.01
  errchk             0.00
  setup              0.00
  output             0.00


           peak memory used        107.00 megabytes
           total cpu time            0.03 seconds
           total elapsed time        0.15 seconds
           job started at     03:33:32 10/25/2014
           job ended   at     03:33:32 10/25/2014


 lic: Release hspice token(s) 
