* # FILE NAME: /HOME/ECEGRID/A/559MG3/CADENCE/SIMULATION/INVERTERTEST/          
* HSPICES/EXTRACTED/NETLIST/INVERTERTEST.C.RAW
* NETLIST OUTPUT FOR HSPICES.
* GENERATED ON OCT 25 03:13:48 2014   
* FILE NAME: HW1_INVERTERTEST_EXTRACTED.S.
* SUBCIRCUIT FOR CELL: INVERTERTEST.
* GENERATED FOR: HSPICES.
* GENERATED ON OCT 25 03:13:48 2014.   
