* # FILE NAME: /HOME/ECEGRID/A/559MG3/CADENCE/SIMULATION/NAND_STATICCMOS/       
* HSPICES/EXTRACTED/NETLIST/NAND_STATICCMOS.C.RAW
* NETLIST OUTPUT FOR HSPICES.
* GENERATED ON NOV 26 16:30:16 2014   
* FILE NAME: PROJ_LIB_NAND_STATICCMOS_EXTRACTED.S.
* SUBCIRCUIT FOR CELL: NAND_STATICCMOS.
* GENERATED FOR: HSPICES.
* GENERATED ON NOV 26 16:30:16 2014.   
