* # FILE NAME: /HOME/ECEGRID/A/559MG3/CADENCE/SIMULATION/CMOS_NAND_180NM/       
* HSPICES/SCHEMATIC/NETLIST/CMOS_NAND_180NM.C.RAW
* NETLIST OUTPUT FOR HSPICES.
* GENERATED ON OCT 31 15:00:16 2014   
* GLOBAL NET DEFINITIONS
